# generated using pymatgen
data_Sr2Cu2Ni(SO)2
_symmetry_space_group_name_H-M   'P 1'
_cell_length_a   9.73630418
_cell_length_b   9.73630418
_cell_length_c   9.73630418
_cell_angle_alpha   157.02310622
_cell_angle_beta   157.02310622
_cell_angle_gamma   32.71972931
_symmetry_Int_Tables_number   1
_chemical_formula_structural   Sr2Cu2Ni(SO)2
_chemical_formula_sum   'Sr2 Cu2 Ni1 S2 O2'
_cell_volume   140.52121868
_cell_formula_units_Z   1
loop_
 _symmetry_equiv_pos_site_id
 _symmetry_equiv_pos_as_xyz
  1  'x, y, z'
loop_
 _atom_site_type_symbol
 _atom_site_label
 _atom_site_symmetry_multiplicity
 _atom_site_fract_x
 _atom_site_fract_y
 _atom_site_fract_z
 _atom_site_occupancy
  Sr  Sr0  1  0.59154900  0.59154900  0.00000000  1
  Sr  Sr1  1  0.40845100  0.40845100  0.00000000  1
  Cu  Cu2  1  0.75000000  0.25000000  0.50000000  1
  Cu  Cu3  1  0.25000000  0.75000000  0.50000000  1
  Ni  Ni4  1  0.00000000  0.00000000  0.00000000  1
  S  S5  1  0.82614700  0.82614700  0.00000000  1
  S  S6  1  0.17385300  0.17385300  0.00000000  1
  O  O7  1  0.00000000  0.50000000  0.50000000  1
  O  O8  1  0.50000000  0.00000000  0.50000000  1
