# generated using pymatgen
data_Cd3Ir
_symmetry_space_group_name_H-M   'P 1'
_cell_length_a   5.28481015
_cell_length_b   5.28481015
_cell_length_c   5.28481015
_cell_angle_alpha   134.10677682
_cell_angle_beta   134.10677682
_cell_angle_gamma   66.92128013
_symmetry_Int_Tables_number   1
_chemical_formula_structural   Cd3Ir
_chemical_formula_sum   'Cd3 Ir1'
_cell_volume   74.86846090
_cell_formula_units_Z   1
loop_
 _symmetry_equiv_pos_site_id
 _symmetry_equiv_pos_as_xyz
  1  'x, y, z'
loop_
 _atom_site_type_symbol
 _atom_site_label
 _atom_site_symmetry_multiplicity
 _atom_site_fract_x
 _atom_site_fract_y
 _atom_site_fract_z
 _atom_site_occupancy
  Cd  Cd0  1  0.75000000  0.25000000  0.50000000  1
  Cd  Cd1  1  0.25000000  0.75000000  0.50000000  1
  Cd  Cd2  1  0.50000000  0.50000000  0.00000000  1
  Ir  Ir3  1  0.00000000  0.00000000  0.00000000  1
