# generated using pymatgen
data_AlPS4
_symmetry_space_group_name_H-M   'P 1'
_cell_length_a   5.71230300
_cell_length_b   5.71644600
_cell_length_c   11.46678800
_cell_angle_alpha   90.00000000
_cell_angle_beta   90.00000000
_cell_angle_gamma   90.00000000
_symmetry_Int_Tables_number   1
_chemical_formula_structural   AlPS4
_chemical_formula_sum   'Al2 P2 S8'
_cell_volume   374.43731678
_cell_formula_units_Z   2
loop_
 _symmetry_equiv_pos_site_id
 _symmetry_equiv_pos_as_xyz
  1  'x, y, z'
loop_
 _atom_site_type_symbol
 _atom_site_label
 _atom_site_symmetry_multiplicity
 _atom_site_fract_x
 _atom_site_fract_y
 _atom_site_fract_z
 _atom_site_occupancy
  Al  Al0  1  0.00000000  0.00000000  0.00000000  1
  Al  Al1  1  0.50000000  0.00000000  0.50000000  1
  P  P2  1  0.00000000  0.50000000  0.00000000  1
  P  P3  1  0.00000000  0.00000000  0.50000000  1
  S  S4  1  0.19784700  0.27643500  0.10191600  1
  S  S5  1  0.19784700  0.72356500  0.89808400  1
  S  S6  1  0.80215300  0.27643500  0.89808400  1
  S  S7  1  0.80215300  0.72356500  0.10191600  1
  S  S8  1  0.77640400  0.80050700  0.60120800  1
  S  S9  1  0.77640400  0.19949300  0.39879200  1
  S  S10  1  0.22359600  0.80050700  0.39879200  1
  S  S11  1  0.22359600  0.19949300  0.60120800  1
