# generated using pymatgen
data_Lu3Fe5O12
_symmetry_space_group_name_H-M   'P 1'
_cell_length_a   10.73695351
_cell_length_b   10.73695351
_cell_length_c   10.73695351
_cell_angle_alpha   109.47122063
_cell_angle_beta   109.47122063
_cell_angle_gamma   109.47122063
_symmetry_Int_Tables_number   1
_chemical_formula_structural   Lu3Fe5O12
_chemical_formula_sum   'Lu12 Fe20 O48'
_cell_volume   952.84295519
_cell_formula_units_Z   4
loop_
 _symmetry_equiv_pos_site_id
 _symmetry_equiv_pos_as_xyz
  1  'x, y, z'
loop_
 _atom_site_type_symbol
 _atom_site_label
 _atom_site_symmetry_multiplicity
 _atom_site_fract_x
 _atom_site_fract_y
 _atom_site_fract_z
 _atom_site_occupancy
  Lu  Lu0  1  0.25000000  0.37500000  0.12500000  1
  Lu  Lu1  1  0.87500000  0.62500000  0.25000000  1
  Lu  Lu2  1  0.37500000  0.12500000  0.25000000  1
  Lu  Lu3  1  0.75000000  0.62500000  0.87500000  1
  Lu  Lu4  1  0.12500000  0.37500000  0.75000000  1
  Lu  Lu5  1  0.87500000  0.75000000  0.62500000  1
  Lu  Lu6  1  0.25000000  0.87500000  0.62500000  1
  Lu  Lu7  1  0.75000000  0.12500000  0.37500000  1
  Lu  Lu8  1  0.37500000  0.75000000  0.12500000  1
  Lu  Lu9  1  0.62500000  0.87500000  0.75000000  1
  Lu  Lu10  1  0.12500000  0.25000000  0.37500000  1
  Lu  Lu11  1  0.62500000  0.25000000  0.87500000  1
  Fe  Fe12  1  0.00000000  0.50000000  0.50000000  1
  Fe  Fe13  1  0.25000000  0.12500000  0.87500000  1
  Fe  Fe14  1  0.37500000  0.62500000  0.75000000  1
  Fe  Fe15  1  0.50000000  0.50000000  0.50000000  1
  Fe  Fe16  1  0.00000000  0.00000000  0.00000000  1
  Fe  Fe17  1  0.25000000  0.62500000  0.37500000  1
  Fe  Fe18  1  0.50000000  0.00000000  0.00000000  1
  Fe  Fe19  1  0.50000000  0.50000000  0.00000000  1
  Fe  Fe20  1  0.62500000  0.75000000  0.37500000  1
  Fe  Fe21  1  0.00000000  0.00000000  0.50000000  1
  Fe  Fe22  1  0.12500000  0.75000000  0.87500000  1
  Fe  Fe23  1  0.75000000  0.37500000  0.62500000  1
  Fe  Fe24  1  0.75000000  0.87500000  0.12500000  1
  Fe  Fe25  1  0.37500000  0.25000000  0.62500000  1
  Fe  Fe26  1  0.87500000  0.12500000  0.75000000  1
  Fe  Fe27  1  0.50000000  0.00000000  0.50000000  1
  Fe  Fe28  1  0.12500000  0.87500000  0.25000000  1
  Fe  Fe29  1  0.87500000  0.25000000  0.12500000  1
  Fe  Fe30  1  0.00000000  0.50000000  0.00000000  1
  Fe  Fe31  1  0.62500000  0.37500000  0.25000000  1
  O  O32  1  0.46476100  0.59246700  0.17640100  1
  O  O33  1  0.96476100  0.67640100  0.09246700  1
  O  O34  1  0.40753300  0.08393400  0.87229400  1
  O  O35  1  0.03523900  0.21164000  0.12770600  1
  O  O36  1  0.40753300  0.82359900  0.53523900  1
  O  O37  1  0.12770600  0.59246700  0.91606600  1
  O  O38  1  0.08393400  0.71164000  0.67640100  1
  O  O39  1  0.09246700  0.96476100  0.67640100  1
  O  O40  1  0.67640100  0.09246700  0.96476100  1
  O  O41  1  0.82359900  0.53523900  0.40753300  1
  O  O42  1  0.46476100  0.37229400  0.28836000  1
  O  O43  1  0.71164000  0.53523900  0.62770600  1
  O  O44  1  0.28836000  0.46476100  0.37229400  1
  O  O45  1  0.53523900  0.62770600  0.71164000  1
  O  O46  1  0.28836000  0.32359900  0.91606600  1
  O  O47  1  0.41606600  0.82359900  0.78836000  1
  O  O48  1  0.82359900  0.78836000  0.41606600  1
  O  O49  1  0.96476100  0.78836000  0.87229400  1
  O  O50  1  0.09246700  0.62770600  0.41606600  1
  O  O51  1  0.32359900  0.91606600  0.28836000  1
  O  O52  1  0.21164000  0.12770600  0.03523900  1
  O  O53  1  0.08393400  0.87229400  0.40753300  1
  O  O54  1  0.17640100  0.46476100  0.59246700  1
  O  O55  1  0.87229400  0.40753300  0.08393400  1
  O  O56  1  0.12770600  0.03523900  0.21164000  1
  O  O57  1  0.91606600  0.28836000  0.32359900  1
  O  O58  1  0.17640100  0.21164000  0.58393400  1
  O  O59  1  0.41606600  0.09246700  0.62770600  1
  O  O60  1  0.37229400  0.28836000  0.46476100  1
  O  O61  1  0.87229400  0.96476100  0.78836000  1
  O  O62  1  0.59246700  0.91606600  0.12770600  1
  O  O63  1  0.62770600  0.71164000  0.53523900  1
  O  O64  1  0.78836000  0.41606600  0.82359900  1
  O  O65  1  0.59246700  0.17640100  0.46476100  1
  O  O66  1  0.90753300  0.37229400  0.58393400  1
  O  O67  1  0.53523900  0.40753300  0.82359900  1
  O  O68  1  0.37229400  0.58393400  0.90753300  1
  O  O69  1  0.58393400  0.90753300  0.37229400  1
  O  O70  1  0.03523900  0.32359900  0.90753300  1
  O  O71  1  0.62770600  0.41606600  0.09246700  1
  O  O72  1  0.67640100  0.08393400  0.71164000  1
  O  O73  1  0.78836000  0.87229400  0.96476100  1
  O  O74  1  0.21164000  0.58393400  0.17640100  1
  O  O75  1  0.58393400  0.17640100  0.21164000  1
  O  O76  1  0.91606600  0.12770600  0.59246700  1
  O  O77  1  0.71164000  0.67640100  0.08393400  1
  O  O78  1  0.32359900  0.90753300  0.03523900  1
  O  O79  1  0.90753300  0.03523900  0.32359900  1
