# generated using pymatgen
data_Mo3W(Se3S)2
_symmetry_space_group_name_H-M   'P 1'
_cell_length_a   3.28625584
_cell_length_b   3.28625584
_cell_length_c   37.34625500
_cell_angle_alpha   90.00000000
_cell_angle_beta   90.00000000
_cell_angle_gamma   119.99999687
_symmetry_Int_Tables_number   1
_chemical_formula_structural   Mo3W(Se3S)2
_chemical_formula_sum   'Mo3 W1 Se6 S2'
_cell_volume   349.28541125
_cell_formula_units_Z   1
loop_
 _symmetry_equiv_pos_site_id
 _symmetry_equiv_pos_as_xyz
  1  'x, y, z'
loop_
 _atom_site_type_symbol
 _atom_site_label
 _atom_site_symmetry_multiplicity
 _atom_site_fract_x
 _atom_site_fract_y
 _atom_site_fract_z
 _atom_site_occupancy
  Mo  Mo0  1  0.33333300  0.66666700  0.09391000  1
  Mo  Mo1  1  0.33333300  0.66666700  0.46965400  1
  Mo  Mo2  1  0.66666700  0.33333300  0.28178900  1
  W  W3  1  0.66666700  0.33333300  0.65753600  1
  Se  Se4  1  0.33333300  0.66666700  0.32697000  1
  Se  Se5  1  0.66666700  0.33333300  0.04874500  1
  Se  Se6  1  0.66666700  0.33333300  0.42450000  1
  Se  Se7  1  0.66666700  0.33333300  0.13909800  1
  Se  Se8  1  0.66666700  0.33333300  0.51483500  1
  Se  Se9  1  0.33333300  0.66666700  0.23663900  1
  S  S10  1  0.33333300  0.66666700  0.69881700  1
  S  S11  1  0.33333300  0.66666700  0.61625200  1
