# generated using pymatgen
data_Y2MgMn2S2O5
_symmetry_space_group_name_H-M   'P 1'
_cell_length_a   14.29840085
_cell_length_b   14.29840085
_cell_length_c   14.29840085
_cell_angle_alpha   164.60022796
_cell_angle_beta   164.60022796
_cell_angle_gamma   21.84514587
_symmetry_Int_Tables_number   1
_chemical_formula_structural   Y2MgMn2S2O5
_chemical_formula_sum   'Y2 Mg1 Mn2 S2 O5'
_cell_volume   206.10565426
_cell_formula_units_Z   1
loop_
 _symmetry_equiv_pos_site_id
 _symmetry_equiv_pos_as_xyz
  1  'x, y, z'
loop_
 _atom_site_type_symbol
 _atom_site_label
 _atom_site_symmetry_multiplicity
 _atom_site_fract_x
 _atom_site_fract_y
 _atom_site_fract_z
 _atom_site_occupancy
  Y  Y0  1  0.36701200  0.36701200  0.00000000  1
  Y  Y1  1  0.63298800  0.63298800  0.00000000  1
  Mg  Mg2  1  0.75000000  0.25000000  0.50000000  1
  Mn  Mn3  1  0.06540700  0.06540700  0.00000000  1
  Mn  Mn4  1  0.93459300  0.93459300  0.00000000  1
  S  S5  1  0.19315100  0.19315100  0.00000000  1
  S  S6  1  0.80684900  0.80684900  0.00000000  1
  O  O7  1  0.59281200  0.09281200  0.50000000  1
  O  O8  1  0.90718800  0.40718800  0.50000000  1
  O  O9  1  0.09135900  0.59135900  0.50000000  1
  O  O10  1  0.40864100  0.90864100  0.50000000  1
  O  O11  1  0.00000000  0.00000000  0.00000000  1
