# generated using pymatgen
data_Mg14BiBO16
_symmetry_space_group_name_H-M   'P 1'
_cell_length_a   4.41270200
_cell_length_b   8.58088700
_cell_length_c   8.77657500
_cell_angle_alpha   90.00000000
_cell_angle_beta   90.00000000
_cell_angle_gamma   90.00000000
_symmetry_Int_Tables_number   1
_chemical_formula_structural   Mg14BiBO16
_chemical_formula_sum   'Mg14 Bi1 B1 O16'
_cell_volume   332.32411038
_cell_formula_units_Z   1
loop_
 _symmetry_equiv_pos_site_id
 _symmetry_equiv_pos_as_xyz
  1  'x, y, z'
loop_
 _atom_site_type_symbol
 _atom_site_label
 _atom_site_symmetry_multiplicity
 _atom_site_fract_x
 _atom_site_fract_y
 _atom_site_fract_z
 _atom_site_occupancy
  Mg  Mg0  1  0.00000000  0.00000000  0.50000000  1
  Mg  Mg1  1  0.00000000  0.50000000  0.50000000  1
  Mg  Mg2  1  0.50000000  0.76715600  0.00000000  1
  Mg  Mg3  1  0.50000000  0.23284400  0.00000000  1
  Mg  Mg4  1  0.50000000  0.75339600  0.50000000  1
  Mg  Mg5  1  0.50000000  0.24660400  0.50000000  1
  Mg  Mg6  1  0.50000000  0.00000000  0.75097300  1
  Mg  Mg7  1  0.50000000  0.50000000  0.73813300  1
  Mg  Mg8  1  0.50000000  0.00000000  0.24902700  1
  Mg  Mg9  1  0.50000000  0.50000000  0.26186700  1
  Mg  Mg10  1  0.00000000  0.75931100  0.74124800  1
  Mg  Mg11  1  0.00000000  0.24068900  0.74124800  1
  Mg  Mg12  1  0.00000000  0.75931100  0.25875200  1
  Mg  Mg13  1  0.00000000  0.24068900  0.25875200  1
  Bi  Bi14  1  0.00000000  0.50000000  0.00000000  1
  B  B15  1  0.00000000  0.00000000  0.00000000  1
  O  O16  1  0.00000000  0.00000000  0.72802300  1
  O  O17  1  0.00000000  0.50000000  0.72770400  1
  O  O18  1  0.00000000  0.00000000  0.27197700  1
  O  O19  1  0.00000000  0.50000000  0.27229600  1
  O  O20  1  0.50000000  0.74863300  0.75317100  1
  O  O21  1  0.50000000  0.25136700  0.75317100  1
  O  O22  1  0.50000000  0.74863300  0.24682900  1
  O  O23  1  0.50000000  0.25136700  0.24682900  1
  O  O24  1  0.50000000  0.00000000  0.00000000  1
  O  O25  1  0.50000000  0.50000000  0.00000000  1
  O  O26  1  0.50000000  0.00000000  0.50000000  1
  O  O27  1  0.50000000  0.50000000  0.50000000  1
  O  O28  1  0.00000000  0.84500800  0.00000000  1
  O  O29  1  0.00000000  0.15499200  0.00000000  1
  O  O30  1  0.00000000  0.74896000  0.50000000  1
  O  O31  1  0.00000000  0.25104000  0.50000000  1
