# generated using pymatgen
data_Yb4NiB13
_symmetry_space_group_name_H-M   'P 1'
_cell_length_a   7.36705200
_cell_length_b   7.36705200
_cell_length_c   6.75340200
_cell_angle_alpha   90.00000000
_cell_angle_beta   90.00000000
_cell_angle_gamma   90.00000000
_symmetry_Int_Tables_number   1
_chemical_formula_structural   Yb4NiB13
_chemical_formula_sum   'Yb8 Ni2 B26'
_cell_volume   366.53046070
_cell_formula_units_Z   2
loop_
 _symmetry_equiv_pos_site_id
 _symmetry_equiv_pos_as_xyz
  1  'x, y, z'
loop_
 _atom_site_type_symbol
 _atom_site_label
 _atom_site_symmetry_multiplicity
 _atom_site_fract_x
 _atom_site_fract_y
 _atom_site_fract_z
 _atom_site_occupancy
  Yb  Yb0  1  0.68035200  0.18936500  0.50000000  1
  Yb  Yb1  1  0.31964800  0.81063500  0.50000000  1
  Yb  Yb2  1  0.18035200  0.31063500  0.00000000  1
  Yb  Yb3  1  0.81964800  0.68936500  0.00000000  1
  Yb  Yb4  1  0.81063500  0.68035200  0.50000000  1
  Yb  Yb5  1  0.18936500  0.31964800  0.50000000  1
  Yb  Yb6  1  0.68936500  0.18035200  0.00000000  1
  Yb  Yb7  1  0.31063500  0.81964800  0.00000000  1
  Ni  Ni8  1  0.50000000  0.50000000  0.50000000  1
  Ni  Ni9  1  0.00000000  0.00000000  0.00000000  1
  B  B10  1  0.50000000  0.50000000  0.00000000  1
  B  B11  1  0.00000000  0.00000000  0.50000000  1
  B  B12  1  0.90835900  0.40835900  0.25000000  1
  B  B13  1  0.09164100  0.59164100  0.25000000  1
  B  B14  1  0.40835900  0.09164100  0.75000000  1
  B  B15  1  0.59164100  0.90835900  0.75000000  1
  B  B16  1  0.59164100  0.90835900  0.25000000  1
  B  B17  1  0.40835900  0.09164100  0.25000000  1
  B  B18  1  0.90835900  0.40835900  0.75000000  1
  B  B19  1  0.09164100  0.59164100  0.75000000  1
  B  B20  1  0.53828500  0.66789000  0.23494400  1
  B  B21  1  0.46171500  0.33211000  0.23494400  1
  B  B22  1  0.03828500  0.83211000  0.73494400  1
  B  B23  1  0.96171500  0.16789000  0.73494400  1
  B  B24  1  0.33211000  0.53828500  0.23494400  1
  B  B25  1  0.66789000  0.46171500  0.23494400  1
  B  B26  1  0.16789000  0.03828500  0.73494400  1
  B  B27  1  0.83211000  0.96171500  0.73494400  1
  B  B28  1  0.46171500  0.33211000  0.76505600  1
  B  B29  1  0.53828500  0.66789000  0.76505600  1
  B  B30  1  0.96171500  0.16789000  0.26505600  1
  B  B31  1  0.03828500  0.83211000  0.26505600  1
  B  B32  1  0.66789000  0.46171500  0.76505600  1
  B  B33  1  0.33211000  0.53828500  0.76505600  1
  B  B34  1  0.83211000  0.96171500  0.26505600  1
  B  B35  1  0.16789000  0.03828500  0.26505600  1
