# generated using pymatgen
data_FeCoGe
_symmetry_space_group_name_H-M   'P 1'
_cell_length_a   4.07666436
_cell_length_b   4.07666436
_cell_length_c   4.98133400
_cell_angle_alpha   90.00000000
_cell_angle_beta   90.00000000
_cell_angle_gamma   120.00000581
_symmetry_Int_Tables_number   1
_chemical_formula_structural   FeCoGe
_chemical_formula_sum   'Fe2 Co2 Ge2'
_cell_volume   71.69455629
_cell_formula_units_Z   2
loop_
 _symmetry_equiv_pos_site_id
 _symmetry_equiv_pos_as_xyz
  1  'x, y, z'
loop_
 _atom_site_type_symbol
 _atom_site_label
 _atom_site_symmetry_multiplicity
 _atom_site_fract_x
 _atom_site_fract_y
 _atom_site_fract_z
 _atom_site_occupancy
  Fe  Fe0  1  0.33333300  0.66666700  0.75000000  1
  Fe  Fe1  1  0.66666700  0.33333300  0.25000000  1
  Co  Co2  1  0.00000000  0.00000000  0.00000000  1
  Co  Co3  1  0.00000000  0.00000000  0.50000000  1
  Ge  Ge4  1  0.33333300  0.66666700  0.25000000  1
  Ge  Ge5  1  0.66666700  0.33333300  0.75000000  1
