# generated using pymatgen
data_Ho2AgSb3
_symmetry_space_group_name_H-M   'P 1'
_cell_length_a   9.03471200
_cell_length_b   9.03471200
_cell_length_c   39.81472100
_cell_angle_alpha   90.00000000
_cell_angle_beta   90.00000000
_cell_angle_gamma   90.00000000
_symmetry_Int_Tables_number   1
_chemical_formula_structural   Ho2AgSb3
_chemical_formula_sum   'Ho2 Ag1 Sb3'
_cell_volume   3249.91724939
_cell_formula_units_Z   1
loop_
 _symmetry_equiv_pos_site_id
 _symmetry_equiv_pos_as_xyz
  1  'x, y, z'
loop_
 _atom_site_type_symbol
 _atom_site_label
 _atom_site_symmetry_multiplicity
 _atom_site_fract_x
 _atom_site_fract_y
 _atom_site_fract_z
 _atom_site_occupancy
  Ho  Ho0  1  0.50000000  0.50000000  0.24310500  1
  Ho  Ho1  1  0.50000000  0.50000000  0.75689500  1
  Ag  Ag2  1  0.50000000  0.50000000  0.50000000  1
  Sb  Sb3  1  0.50000000  0.50000000  0.69114200  1
  Sb  Sb4  1  0.50000000  0.50000000  0.30885800  1
  Sb  Sb5  1  0.50000000  0.50000000  0.00000000  1
