# generated using pymatgen
data_Zr4Mn
_symmetry_space_group_name_H-M   'P 1'
_cell_length_a   6.89372543
_cell_length_b   6.89372543
_cell_length_c   6.89372543
_cell_angle_alpha   60.00000000
_cell_angle_beta   60.00000000
_cell_angle_gamma   60.00000000
_symmetry_Int_Tables_number   1
_chemical_formula_structural   Zr4Mn
_chemical_formula_sum   'Zr8 Mn2'
_cell_volume   231.65781093
_cell_formula_units_Z   2
loop_
 _symmetry_equiv_pos_site_id
 _symmetry_equiv_pos_as_xyz
  1  'x, y, z'
loop_
 _atom_site_type_symbol
 _atom_site_label
 _atom_site_symmetry_multiplicity
 _atom_site_fract_x
 _atom_site_fract_y
 _atom_site_fract_z
 _atom_site_occupancy
  Zr  Zr0  1  0.61032100  0.61032100  0.61032100  1
  Zr  Zr1  1  0.16903600  0.61032100  0.61032100  1
  Zr  Zr2  1  0.61032100  0.16903600  0.61032100  1
  Zr  Zr3  1  0.58096400  0.13967900  0.13967900  1
  Zr  Zr4  1  0.13967900  0.13967900  0.13967900  1
  Zr  Zr5  1  0.61032100  0.61032100  0.16903600  1
  Zr  Zr6  1  0.13967900  0.58096400  0.13967900  1
  Zr  Zr7  1  0.13967900  0.13967900  0.58096400  1
  Mn  Mn8  1  0.00000000  0.00000000  0.00000000  1
  Mn  Mn9  1  0.75000000  0.75000000  0.75000000  1
