# generated using pymatgen
data_TbHfO14
_symmetry_space_group_name_H-M   'P 1'
_cell_length_a   8.37913899
_cell_length_b   8.37913899
_cell_length_c   8.37913899
_cell_angle_alpha   60.00000000
_cell_angle_beta   60.00000000
_cell_angle_gamma   60.00000000
_symmetry_Int_Tables_number   1
_chemical_formula_structural   TbHfO14
_chemical_formula_sum   'Tb2 Hf2 O28'
_cell_volume   415.99028213
_cell_formula_units_Z   2
loop_
 _symmetry_equiv_pos_site_id
 _symmetry_equiv_pos_as_xyz
  1  'x, y, z'
loop_
 _atom_site_type_symbol
 _atom_site_label
 _atom_site_symmetry_multiplicity
 _atom_site_fract_x
 _atom_site_fract_y
 _atom_site_fract_z
 _atom_site_occupancy
  Tb  Tb0  1  0.00000000  0.00000000  0.00000000  1
  Tb  Tb1  1  0.75000000  0.75000000  0.75000000  1
  Hf  Hf2  1  0.50000000  0.50000000  0.50000000  1
  Hf  Hf3  1  0.25000000  0.25000000  0.25000000  1
  O  O4  1  0.87500000  0.87500000  0.87500000  1
  O  O5  1  0.37500000  0.87500000  0.87500000  1
  O  O6  1  0.87500000  0.37500000  0.87500000  1
  O  O7  1  0.87500000  0.87500000  0.37500000  1
  O  O8  1  0.45352200  0.45352200  0.16446200  1
  O  O9  1  0.92849400  0.16446200  0.45352200  1
  O  O10  1  0.16446200  0.92849400  0.45352200  1
  O  O11  1  0.45352200  0.16446200  0.45352200  1
  O  O12  1  0.82150600  0.29647800  0.58553800  1
  O  O13  1  0.29647800  0.29647800  0.58553800  1
  O  O14  1  0.45352200  0.45352200  0.92849400  1
  O  O15  1  0.16446200  0.45352200  0.92849400  1
  O  O16  1  0.29647800  0.58553800  0.29647800  1
  O  O17  1  0.82150600  0.58553800  0.29647800  1
  O  O18  1  0.92849400  0.45352200  0.16446200  1
  O  O19  1  0.29647800  0.82150600  0.29647800  1
  O  O20  1  0.58553800  0.82150600  0.29647800  1
  O  O21  1  0.45352200  0.92849400  0.45352200  1
  O  O22  1  0.58553800  0.29647800  0.82150600  1
  O  O23  1  0.29647800  0.29647800  0.82150600  1
  O  O24  1  0.16446200  0.45352200  0.45352200  1
  O  O25  1  0.45352200  0.16446200  0.92849400  1
  O  O26  1  0.92849400  0.45352200  0.45352200  1
  O  O27  1  0.45352200  0.92849400  0.16446200  1
  O  O28  1  0.29647800  0.58553800  0.82150600  1
  O  O29  1  0.58553800  0.29647800  0.29647800  1
  O  O30  1  0.29647800  0.82150600  0.58553800  1
  O  O31  1  0.82150600  0.29647800  0.29647800  1
