# generated using pymatgen
data_TiCu2NiO4
_symmetry_space_group_name_H-M   'P 1'
_cell_length_a   3.00288900
_cell_length_b   5.14344200
_cell_length_c   5.55690039
_cell_angle_alpha   72.15767860
_cell_angle_beta   90.00000000
_cell_angle_gamma   90.00000000
_symmetry_Int_Tables_number   1
_chemical_formula_structural   TiCu2NiO4
_chemical_formula_sum   'Ti1 Cu2 Ni1 O4'
_cell_volume   81.69934696
_cell_formula_units_Z   1
loop_
 _symmetry_equiv_pos_site_id
 _symmetry_equiv_pos_as_xyz
  1  'x, y, z'
loop_
 _atom_site_type_symbol
 _atom_site_label
 _atom_site_symmetry_multiplicity
 _atom_site_fract_x
 _atom_site_fract_y
 _atom_site_fract_z
 _atom_site_occupancy
  Ti  Ti0  1  0.50000000  0.00000000  0.50000000  1
  Cu  Cu1  1  0.00000000  0.00000000  0.00000000  1
  Cu  Cu2  1  0.50000000  0.50000000  0.00000000  1
  Ni  Ni3  1  0.00000000  0.50000000  0.50000000  1
  O  O4  1  0.50000000  0.75095200  0.28756300  1
  O  O5  1  0.00000000  0.22420400  0.29578300  1
  O  O6  1  0.50000000  0.24904800  0.71243700  1
  O  O7  1  0.00000000  0.77579600  0.70421700  1
