# generated using pymatgen
data_ErAl8Ni3
_symmetry_space_group_name_H-M   'P 1'
_cell_length_a   3.93172700
_cell_length_b   6.64877700
_cell_length_c   7.57549414
_cell_angle_alpha   90.00000000
_cell_angle_beta   74.95942176
_cell_angle_gamma   90.00000000
_symmetry_Int_Tables_number   1
_chemical_formula_structural   ErAl8Ni3
_chemical_formula_sum   'Er1 Al8 Ni3'
_cell_volume   191.24819044
_cell_formula_units_Z   1
loop_
 _symmetry_equiv_pos_site_id
 _symmetry_equiv_pos_as_xyz
  1  'x, y, z'
loop_
 _atom_site_type_symbol
 _atom_site_label
 _atom_site_symmetry_multiplicity
 _atom_site_fract_x
 _atom_site_fract_y
 _atom_site_fract_z
 _atom_site_occupancy
  Er  Er0  1  0.12610200  0.75000000  0.74779700  1
  Al  Al1  1  0.92684300  0.75000000  0.14631400  1
  Al  Al2  1  0.06343200  0.25000000  0.87313600  1
  Al  Al3  1  0.49621800  0.48814400  0.00756500  1
  Al  Al4  1  0.49621800  0.01185600  0.00756500  1
  Al  Al5  1  0.31949100  0.54058100  0.36101900  1
  Al  Al6  1  0.68949500  0.44255600  0.62100900  1
  Al  Al7  1  0.31949100  0.95941900  0.36101900  1
  Al  Al8  1  0.68949500  0.05744400  0.62100900  1
  Ni  Ni9  1  0.76915700  0.75000000  0.46168500  1
  Ni  Ni10  1  0.22612200  0.25000000  0.54775700  1
  Ni  Ni11  1  0.87793700  0.25000000  0.24412700  1
