# generated using pymatgen
data_CaSm2S3
_symmetry_space_group_name_H-M   'P 1'
_cell_length_a   4.02452535
_cell_length_b   4.02452535
_cell_length_c   9.85331900
_cell_angle_alpha   90.00000000
_cell_angle_beta   90.00000000
_cell_angle_gamma   119.99998926
_symmetry_Int_Tables_number   1
_chemical_formula_structural   CaSm2S3
_chemical_formula_sum   'Ca1 Sm2 S3'
_cell_volume   138.21098301
_cell_formula_units_Z   1
loop_
 _symmetry_equiv_pos_site_id
 _symmetry_equiv_pos_as_xyz
  1  'x, y, z'
loop_
 _atom_site_type_symbol
 _atom_site_label
 _atom_site_symmetry_multiplicity
 _atom_site_fract_x
 _atom_site_fract_y
 _atom_site_fract_z
 _atom_site_occupancy
  Ca  Ca0  1  0.00000000  0.00000000  0.00000000  1
  Sm  Sm1  1  0.33333300  0.66666700  0.65604000  1
  Sm  Sm2  1  0.66666700  0.33333300  0.34396000  1
  S  S3  1  0.33333300  0.66666700  0.16511600  1
  S  S4  1  0.66666700  0.33333300  0.83488400  1
  S  S5  1  0.00000000  0.00000000  0.50000000  1
