# generated using pymatgen
data_FeO
_symmetry_space_group_name_H-M   'P 1'
_cell_length_a   3.15720731
_cell_length_b   5.35091776
_cell_length_c   5.36007992
_cell_angle_alpha   108.44215940
_cell_angle_beta   91.08669242
_cell_angle_gamma   91.65991756
_symmetry_Int_Tables_number   1
_chemical_formula_structural   FeO
_chemical_formula_sum   'Fe4 O4'
_cell_volume   85.82863911
_cell_formula_units_Z   4
loop_
 _symmetry_equiv_pos_site_id
 _symmetry_equiv_pos_as_xyz
  1  'x, y, z'
loop_
 _atom_site_type_symbol
 _atom_site_label
 _atom_site_symmetry_multiplicity
 _atom_site_fract_x
 _atom_site_fract_y
 _atom_site_fract_z
 _atom_site_occupancy
  Fe  Fe0  1  0.50000100  0.00000000  0.50000100  1
  Fe  Fe1  1  0.50000100  0.50000000  0.00000100  1
  Fe  Fe2  1  0.99999700  0.99999900  0.99999800  1
  Fe  Fe3  1  0.00000100  0.50000100  0.50000000  1
  O  O4  1  0.97937800  0.25052800  0.73044700  1
  O  O5  1  0.47943600  0.25013600  0.23045300  1
  O  O6  1  0.02062200  0.74947200  0.26955400  1
  O  O7  1  0.52056400  0.74986400  0.76954700  1
