# generated using pymatgen
data_BaZr2SnO6
_symmetry_space_group_name_H-M   'P 1'
_cell_length_a   4.22788950
_cell_length_b   4.22779909
_cell_length_c   8.45162975
_cell_angle_alpha   90.00000000
_cell_angle_beta   90.02101367
_cell_angle_gamma   90.00000000
_symmetry_Int_Tables_number   1
_chemical_formula_structural   BaZr2SnO6
_chemical_formula_sum   'Ba1 Zr2 Sn1 O6'
_cell_volume   151.07006039
_cell_formula_units_Z   1
loop_
 _symmetry_equiv_pos_site_id
 _symmetry_equiv_pos_as_xyz
  1  'x, y, z'
loop_
 _atom_site_type_symbol
 _atom_site_label
 _atom_site_symmetry_multiplicity
 _atom_site_fract_x
 _atom_site_fract_y
 _atom_site_fract_z
 _atom_site_occupancy
  Ba  Ba0  1  0.00000000  0.50000000  0.50000000  1
  Zr  Zr1  1  0.50005408  0.00000000  0.75292961  1
  Zr  Zr2  1  0.49994592  0.00000000  0.24707039  1
  Sn  Sn3  1  0.00000000  0.50000000  -0.00000000  1
  O  O4  1  0.50003463  0.50000000  0.75029996  1
  O  O5  1  0.49996537  0.50000000  0.24970004  1
  O  O6  1  0.00000811  -0.00000000  0.75029933  1
  O  O7  1  0.99999189  -0.00000000  0.24970067  1
  O  O8  1  0.50000000  0.00000000  -0.00000000  1
  O  O9  1  0.50000000  -0.00000000  0.50000000  1
