# generated using pymatgen
data_SiO2
_symmetry_space_group_name_H-M   'P 1'
_cell_length_a   12.64648900
_cell_length_b   12.64648900
_cell_length_c   12.64648900
_cell_angle_alpha   90.00000000
_cell_angle_beta   90.00000000
_cell_angle_gamma   90.00000000
_symmetry_Int_Tables_number   1
_chemical_formula_structural   SiO2
_chemical_formula_sum   'Si48 O96'
_cell_volume   2022.59957578
_cell_formula_units_Z   48
loop_
 _symmetry_equiv_pos_site_id
 _symmetry_equiv_pos_as_xyz
  1  'x, y, z'
loop_
 _atom_site_type_symbol
 _atom_site_label
 _atom_site_symmetry_multiplicity
 _atom_site_fract_x
 _atom_site_fract_y
 _atom_site_fract_z
 _atom_site_occupancy
  Si  Si0  1  0.68925200  0.51436200  0.15444400  1
  Si  Si1  1  0.68925200  0.84555600  0.48563800  1
  Si  Si2  1  0.15444400  0.48563800  0.31074800  1
  Si  Si3  1  0.68925200  0.15444400  0.51436200  1
  Si  Si4  1  0.51436200  0.68925200  0.15444400  1
  Si  Si5  1  0.48563800  0.15444400  0.31074800  1
  Si  Si6  1  0.15444400  0.51436200  0.68925200  1
  Si  Si7  1  0.81074800  0.98563800  0.34555600  1
  Si  Si8  1  0.84555600  0.51436200  0.31074800  1
  Si  Si9  1  0.18925200  0.34555600  0.01436200  1
  Si  Si10  1  0.98563800  0.81074800  0.34555600  1
  Si  Si11  1  0.84555600  0.48563800  0.68925200  1
  Si  Si12  1  0.15444400  0.68925200  0.51436200  1
  Si  Si13  1  0.48563800  0.31074800  0.15444400  1
  Si  Si14  1  0.01436200  0.65444400  0.81074800  1
  Si  Si15  1  0.34555600  0.01436200  0.18925200  1
  Si  Si16  1  0.48563800  0.84555600  0.68925200  1
  Si  Si17  1  0.31074800  0.48563800  0.15444400  1
  Si  Si18  1  0.51436200  0.31074800  0.84555600  1
  Si  Si19  1  0.01436200  0.34555600  0.18925200  1
  Si  Si20  1  0.81074800  0.34555600  0.98563800  1
  Si  Si21  1  0.18925200  0.01436200  0.34555600  1
  Si  Si22  1  0.51436200  0.15444400  0.68925200  1
  Si  Si23  1  0.18925200  0.98563800  0.65444400  1
  Si  Si24  1  0.84555600  0.68925200  0.48563800  1
  Si  Si25  1  0.31074800  0.51436200  0.84555600  1
  Si  Si26  1  0.65444400  0.18925200  0.98563800  1
  Si  Si27  1  0.98563800  0.34555600  0.81074800  1
  Si  Si28  1  0.81074800  0.65444400  0.01436200  1
  Si  Si29  1  0.31074800  0.84555600  0.51436200  1
  Si  Si30  1  0.34555600  0.18925200  0.01436200  1
  Si  Si31  1  0.15444400  0.31074800  0.48563800  1
  Si  Si32  1  0.65444400  0.01436200  0.81074800  1
  Si  Si33  1  0.01436200  0.81074800  0.65444400  1
  Si  Si34  1  0.34555600  0.81074800  0.98563800  1
  Si  Si35  1  0.98563800  0.18925200  0.65444400  1
  Si  Si36  1  0.31074800  0.15444400  0.48563800  1
  Si  Si37  1  0.65444400  0.98563800  0.18925200  1
  Si  Si38  1  0.51436200  0.84555600  0.31074800  1
  Si  Si39  1  0.01436200  0.18925200  0.34555600  1
  Si  Si40  1  0.48563800  0.68925200  0.84555600  1
  Si  Si41  1  0.84555600  0.31074800  0.51436200  1
  Si  Si42  1  0.34555600  0.98563800  0.81074800  1
  Si  Si43  1  0.18925200  0.65444400  0.98563800  1
  Si  Si44  1  0.98563800  0.65444400  0.18925200  1
  Si  Si45  1  0.68925200  0.48563800  0.84555600  1
  Si  Si46  1  0.81074800  0.01436200  0.65444400  1
  Si  Si47  1  0.65444400  0.81074800  0.01436200  1
  O  O48  1  0.58262200  0.08262200  0.25000000  1
  O  O49  1  0.56556800  0.84932600  0.43443200  1
  O  O50  1  0.77825900  0.22174100  0.01265200  1
  O  O51  1  0.88302600  0.38302600  0.75000000  1
  O  O52  1  0.84932600  0.56556800  0.43443200  1
  O  O53  1  0.48734800  0.27825900  0.72174100  1
  O  O54  1  0.56556800  0.43443200  0.84932600  1
  O  O55  1  0.11697400  0.25000000  0.38302600  1
  O  O56  1  0.27825900  0.27825900  0.51265200  1
  O  O57  1  0.75000000  0.11697400  0.61697400  1
  O  O58  1  0.27825900  0.48734800  0.72174100  1
  O  O59  1  0.11697400  0.61697400  0.75000000  1
  O  O60  1  0.01265200  0.77825900  0.22174100  1
  O  O61  1  0.77825900  0.98734800  0.77825900  1
  O  O62  1  0.34932700  0.06556800  0.06556800  1
  O  O63  1  0.22174100  0.22174100  0.98734800  1
  O  O64  1  0.65067400  0.06556800  0.93443200  1
  O  O65  1  0.48734800  0.72174100  0.27825900  1
  O  O66  1  0.25000000  0.61697400  0.88302600  1
  O  O67  1  0.15067400  0.56556800  0.56556800  1
  O  O68  1  0.58262200  0.75000000  0.91737800  1
  O  O69  1  0.93443200  0.34932700  0.93443200  1
  O  O70  1  0.15067400  0.43443200  0.43443200  1
  O  O71  1  0.06556800  0.65067400  0.93443200  1
  O  O72  1  0.75000000  0.58262200  0.91737800  1
  O  O73  1  0.56556800  0.56556800  0.15067400  1
  O  O74  1  0.25000000  0.11697400  0.38302600  1
  O  O75  1  0.93443200  0.06556800  0.65067400  1
  O  O76  1  0.43443200  0.15067400  0.43443200  1
  O  O77  1  0.25000000  0.41737800  0.91737800  1
  O  O78  1  0.11697400  0.75000000  0.61697400  1
  O  O79  1  0.08262200  0.25000000  0.58262200  1
  O  O80  1  0.91737800  0.25000000  0.41737800  1
  O  O81  1  0.38302600  0.11697400  0.25000000  1
  O  O82  1  0.25000000  0.58262200  0.08262200  1
  O  O83  1  0.98734800  0.22174100  0.22174100  1
  O  O84  1  0.27825900  0.51265200  0.27825900  1
  O  O85  1  0.06556800  0.34932700  0.06556800  1
  O  O86  1  0.91737800  0.75000000  0.58262200  1
  O  O87  1  0.22174100  0.98734800  0.22174100  1
  O  O88  1  0.93443200  0.65067400  0.06556800  1
  O  O89  1  0.22174100  0.77825900  0.01265200  1
  O  O90  1  0.38302600  0.25000000  0.11697400  1
  O  O91  1  0.01265200  0.22174100  0.77825900  1
  O  O92  1  0.41737800  0.91737800  0.25000000  1
  O  O93  1  0.58262200  0.91737800  0.75000000  1
  O  O94  1  0.25000000  0.38302600  0.11697400  1
  O  O95  1  0.08262200  0.75000000  0.41737800  1
  O  O96  1  0.56556800  0.15067400  0.56556800  1
  O  O97  1  0.98734800  0.77825900  0.77825900  1
  O  O98  1  0.41737800  0.08262200  0.75000000  1
  O  O99  1  0.51265200  0.27825900  0.27825900  1
  O  O100  1  0.88302600  0.61697400  0.25000000  1
  O  O101  1  0.43443200  0.56556800  0.84932600  1
  O  O102  1  0.41737800  0.25000000  0.91737800  1
  O  O103  1  0.75000000  0.41737800  0.08262200  1
  O  O104  1  0.72174100  0.27825900  0.48734800  1
  O  O105  1  0.08262200  0.41737800  0.75000000  1
  O  O106  1  0.65067400  0.93443200  0.06556800  1
  O  O107  1  0.88302600  0.75000000  0.38302600  1
  O  O108  1  0.25000000  0.91737800  0.41737800  1
  O  O109  1  0.77825900  0.01265200  0.22174100  1
  O  O110  1  0.77825900  0.77825900  0.98734800  1
  O  O111  1  0.43443200  0.84932600  0.56556800  1
  O  O112  1  0.84932600  0.43443200  0.56556800  1
  O  O113  1  0.25000000  0.08262200  0.58262200  1
  O  O114  1  0.43443200  0.43443200  0.15067400  1
  O  O115  1  0.25000000  0.88302600  0.61697400  1
  O  O116  1  0.75000000  0.88302600  0.38302600  1
  O  O117  1  0.61697400  0.25000000  0.88302600  1
  O  O118  1  0.75000000  0.08262200  0.41737800  1
  O  O119  1  0.34932700  0.93443200  0.93443200  1
  O  O120  1  0.38302600  0.88302600  0.75000000  1
  O  O121  1  0.91737800  0.41737800  0.25000000  1
  O  O122  1  0.61697400  0.88302600  0.25000000  1
  O  O123  1  0.51265200  0.72174100  0.72174100  1
  O  O124  1  0.75000000  0.91737800  0.58262200  1
  O  O125  1  0.11697400  0.38302600  0.25000000  1
  O  O126  1  0.88302600  0.25000000  0.61697400  1
  O  O127  1  0.06556800  0.93443200  0.65067400  1
  O  O128  1  0.61697400  0.75000000  0.11697400  1
  O  O129  1  0.91737800  0.58262200  0.75000000  1
  O  O130  1  0.38302600  0.75000000  0.88302600  1
  O  O131  1  0.72174100  0.72174100  0.51265200  1
  O  O132  1  0.61697400  0.11697400  0.75000000  1
  O  O133  1  0.22174100  0.01265200  0.77825900  1
  O  O134  1  0.58262200  0.25000000  0.08262200  1
  O  O135  1  0.27825900  0.72174100  0.48734800  1
  O  O136  1  0.72174100  0.51265200  0.72174100  1
  O  O137  1  0.72174100  0.48734800  0.27825900  1
  O  O138  1  0.93443200  0.93443200  0.34932700  1
  O  O139  1  0.75000000  0.38302600  0.88302600  1
  O  O140  1  0.75000000  0.61697400  0.11697400  1
  O  O141  1  0.06556800  0.06556800  0.34932700  1
  O  O142  1  0.08262200  0.58262200  0.25000000  1
  O  O143  1  0.41737800  0.75000000  0.08262200  1
