# generated using pymatgen
data_HfZnRh2
_symmetry_space_group_name_H-M   'P 1'
_cell_length_a   10.67762914
_cell_length_b   10.67762914
_cell_length_c   10.67762914
_cell_angle_alpha   127.22733464
_cell_angle_beta   117.70656975
_cell_angle_gamma   85.99045725
_symmetry_Int_Tables_number   1
_chemical_formula_structural   HfZnRh2
_chemical_formula_sum   'Hf1 Zn1 Rh2'
_cell_volume   818.70141114
_cell_formula_units_Z   1
loop_
 _symmetry_equiv_pos_site_id
 _symmetry_equiv_pos_as_xyz
  1  'x, y, z'
loop_
 _atom_site_type_symbol
 _atom_site_label
 _atom_site_symmetry_multiplicity
 _atom_site_fract_x
 _atom_site_fract_y
 _atom_site_fract_z
 _atom_site_occupancy
  Hf  Hf0  1  0.00000000  0.50000000  0.50000000  1
  Zn  Zn1  1  0.00000000  0.00000000  0.00000000  1
  Rh  Rh2  1  0.00000000  0.26650200  0.26650200  1
  Rh  Rh3  1  0.00000000  0.73349800  0.73349800  1
