# generated using pymatgen
data_BaCa(SbO2)4
_symmetry_space_group_name_H-M   'P 1'
_cell_length_a   6.25644808
_cell_length_b   6.25644808
_cell_length_c   7.37227300
_cell_angle_alpha   90.00000000
_cell_angle_beta   90.00000000
_cell_angle_gamma   120.00000087
_symmetry_Int_Tables_number   1
_chemical_formula_structural   BaCa(SbO2)4
_chemical_formula_sum   'Ba1 Ca1 Sb4 O8'
_cell_volume   249.91235496
_cell_formula_units_Z   1
loop_
 _symmetry_equiv_pos_site_id
 _symmetry_equiv_pos_as_xyz
  1  'x, y, z'
loop_
 _atom_site_type_symbol
 _atom_site_label
 _atom_site_symmetry_multiplicity
 _atom_site_fract_x
 _atom_site_fract_y
 _atom_site_fract_z
 _atom_site_occupancy
  Ba  Ba0  1  0.00000000  0.00000000  0.00000000  1
  Ca  Ca1  1  0.00000000  0.00000000  0.50000000  1
  Sb  Sb2  1  0.33333300  0.66666700  0.72795700  1
  Sb  Sb3  1  0.66666700  0.33333300  0.72795700  1
  Sb  Sb4  1  0.33333300  0.66666700  0.27204300  1
  Sb  Sb5  1  0.66666700  0.33333300  0.27204300  1
  O  O6  1  0.29986500  0.29986500  0.71965000  1
  O  O7  1  0.70013500  0.00000000  0.71965000  1
  O  O8  1  0.00000000  0.70013500  0.71965000  1
  O  O9  1  0.70013500  0.70013500  0.28035000  1
  O  O10  1  0.00000000  0.29986500  0.28035000  1
  O  O11  1  0.29986500  0.00000000  0.28035000  1
  O  O12  1  0.33333300  0.66666700  0.00000000  1
  O  O13  1  0.66666700  0.33333300  0.00000000  1
