# generated using pymatgen
data_EuO2
_symmetry_space_group_name_H-M   'P 1'
_cell_length_a   3.53497000
_cell_length_b   3.53497000
_cell_length_c   6.22382900
_cell_angle_alpha   90.00000000
_cell_angle_beta   90.00000000
_cell_angle_gamma   90.00000000
_symmetry_Int_Tables_number   1
_chemical_formula_structural   EuO2
_chemical_formula_sum   'Eu2 O4'
_cell_volume   77.77304748
_cell_formula_units_Z   2
loop_
 _symmetry_equiv_pos_site_id
 _symmetry_equiv_pos_as_xyz
  1  'x, y, z'
loop_
 _atom_site_type_symbol
 _atom_site_label
 _atom_site_symmetry_multiplicity
 _atom_site_fract_x
 _atom_site_fract_y
 _atom_site_fract_z
 _atom_site_occupancy
  Eu  Eu0  1  0.00000000  0.50000000  0.25964400  1
  Eu  Eu1  1  0.50000000  0.00000000  0.74035600  1
  O  O2  1  0.00000000  0.00000000  0.00000000  1
  O  O3  1  0.50000000  0.50000000  0.00000000  1
  O  O4  1  0.00000000  0.50000000  0.63338000  1
  O  O5  1  0.50000000  0.00000000  0.36662000  1
