# generated using pymatgen
data_Mg14AlBO16
_symmetry_space_group_name_H-M   'P 1'
_cell_length_a   4.23723100
_cell_length_b   8.51473800
_cell_length_c   8.55111200
_cell_angle_alpha   90.00000000
_cell_angle_beta   90.00000000
_cell_angle_gamma   90.00000000
_symmetry_Int_Tables_number   1
_chemical_formula_structural   Mg14AlBO16
_chemical_formula_sum   'Mg14 Al1 B1 O16'
_cell_volume   308.51481573
_cell_formula_units_Z   1
loop_
 _symmetry_equiv_pos_site_id
 _symmetry_equiv_pos_as_xyz
  1  'x, y, z'
loop_
 _atom_site_type_symbol
 _atom_site_label
 _atom_site_symmetry_multiplicity
 _atom_site_fract_x
 _atom_site_fract_y
 _atom_site_fract_z
 _atom_site_occupancy
  Mg  Mg0  1  0.00000000  0.50000000  0.00000000  1
  Mg  Mg1  1  0.00000000  0.50000000  0.50000000  1
  Mg  Mg2  1  0.50000000  0.00000000  0.25598800  1
  Mg  Mg3  1  0.50000000  0.00000000  0.74401200  1
  Mg  Mg4  1  0.50000000  0.50000000  0.25259700  1
  Mg  Mg5  1  0.50000000  0.50000000  0.74740300  1
  Mg  Mg6  1  0.50000000  0.24985700  0.00000000  1
  Mg  Mg7  1  0.50000000  0.24667100  0.50000000  1
  Mg  Mg8  1  0.50000000  0.75014300  0.00000000  1
  Mg  Mg9  1  0.50000000  0.75332900  0.50000000  1
  Mg  Mg10  1  0.00000000  0.24751400  0.25531600  1
  Mg  Mg11  1  0.00000000  0.24751400  0.74468400  1
  Mg  Mg12  1  0.00000000  0.75248600  0.25531600  1
  Mg  Mg13  1  0.00000000  0.75248600  0.74468400  1
  Al  Al14  1  0.00000000  0.00000000  0.00000000  1
  B  B15  1  0.00000000  0.00000000  0.50000000  1
  O  O16  1  0.00000000  0.23627200  0.00000000  1
  O  O17  1  0.00000000  0.26335500  0.50000000  1
  O  O18  1  0.00000000  0.76372800  0.00000000  1
  O  O19  1  0.00000000  0.73664500  0.50000000  1
  O  O20  1  0.50000000  0.24857800  0.24966300  1
  O  O21  1  0.50000000  0.24857800  0.75033700  1
  O  O22  1  0.50000000  0.75142200  0.24966300  1
  O  O23  1  0.50000000  0.75142200  0.75033700  1
  O  O24  1  0.50000000  0.00000000  0.00000000  1
  O  O25  1  0.50000000  0.00000000  0.50000000  1
  O  O26  1  0.50000000  0.50000000  0.00000000  1
  O  O27  1  0.50000000  0.50000000  0.50000000  1
  O  O28  1  0.00000000  0.00000000  0.21627300  1
  O  O29  1  0.00000000  0.00000000  0.78372700  1
  O  O30  1  0.00000000  0.50000000  0.24426700  1
  O  O31  1  0.00000000  0.50000000  0.75573300  1
