# generated using pymatgen
data_Ce2Mg
_symmetry_space_group_name_H-M   'P 1'
_cell_length_a   3.12269818
_cell_length_b   3.12269818
_cell_length_c   18.24009100
_cell_angle_alpha   90.00000000
_cell_angle_beta   90.00000000
_cell_angle_gamma   120.00000374
_symmetry_Int_Tables_number   1
_chemical_formula_structural   Ce2Mg
_chemical_formula_sum   'Ce4 Mg2'
_cell_volume   154.03436952
_cell_formula_units_Z   2
loop_
 _symmetry_equiv_pos_site_id
 _symmetry_equiv_pos_as_xyz
  1  'x, y, z'
loop_
 _atom_site_type_symbol
 _atom_site_label
 _atom_site_symmetry_multiplicity
 _atom_site_fract_x
 _atom_site_fract_y
 _atom_site_fract_z
 _atom_site_occupancy
  Ce  Ce0  1  0.33333300  0.66666700  0.91429900  1
  Ce  Ce1  1  0.33333300  0.66666700  0.58570100  1
  Ce  Ce2  1  0.66666700  0.33333300  0.41429900  1
  Ce  Ce3  1  0.66666700  0.33333300  0.08570100  1
  Mg  Mg4  1  0.66666700  0.33333300  0.75000000  1
  Mg  Mg5  1  0.33333300  0.66666700  0.25000000  1
