# generated using pymatgen
data_CuTe2
_symmetry_space_group_name_H-M   'P 1'
_cell_length_a   6.62184000
_cell_length_b   6.62184000
_cell_length_c   6.62184000
_cell_angle_alpha   90.00000000
_cell_angle_beta   90.00000000
_cell_angle_gamma   90.00000000
_symmetry_Int_Tables_number   1
_chemical_formula_structural   CuTe2
_chemical_formula_sum   'Cu4 Te8'
_cell_volume   290.35950593
_cell_formula_units_Z   4
loop_
 _symmetry_equiv_pos_site_id
 _symmetry_equiv_pos_as_xyz
  1  'x, y, z'
loop_
 _atom_site_type_symbol
 _atom_site_label
 _atom_site_symmetry_multiplicity
 _atom_site_fract_x
 _atom_site_fract_y
 _atom_site_fract_z
 _atom_site_occupancy
  Cu  Cu0  1  0.50000000  0.50000000  0.00000000  1
  Cu  Cu1  1  0.50000000  0.00000000  0.50000000  1
  Cu  Cu2  1  0.00000000  0.50000000  0.50000000  1
  Cu  Cu3  1  0.00000000  0.00000000  0.00000000  1
  Te  Te4  1  0.12489500  0.87510500  0.37510500  1
  Te  Te5  1  0.87510500  0.37510500  0.12489500  1
  Te  Te6  1  0.37510500  0.12489500  0.87510500  1
  Te  Te7  1  0.62489500  0.62489500  0.62489500  1
  Te  Te8  1  0.87510500  0.12489500  0.62489500  1
  Te  Te9  1  0.12489500  0.62489500  0.87510500  1
  Te  Te10  1  0.62489500  0.87510500  0.12489500  1
  Te  Te11  1  0.37510500  0.37510500  0.37510500  1
