# generated using pymatgen
data_YCdRh2
_symmetry_space_group_name_H-M   'P 1'
_cell_length_a   11.26516624
_cell_length_b   11.26516624
_cell_length_c   11.26516624
_cell_angle_alpha   127.43784534
_cell_angle_beta   117.62382314
_cell_angle_gamma   85.89612457
_symmetry_Int_Tables_number   1
_chemical_formula_structural   YCdRh2
_chemical_formula_sum   'Y1 Cd1 Rh2'
_cell_volume   959.73982383
_cell_formula_units_Z   1
loop_
 _symmetry_equiv_pos_site_id
 _symmetry_equiv_pos_as_xyz
  1  'x, y, z'
loop_
 _atom_site_type_symbol
 _atom_site_label
 _atom_site_symmetry_multiplicity
 _atom_site_fract_x
 _atom_site_fract_y
 _atom_site_fract_z
 _atom_site_occupancy
  Y  Y0  1  0.00000000  0.00000000  0.00000000  1
  Cd  Cd1  1  0.00000000  0.50000000  0.50000000  1
  Rh  Rh2  1  0.00000000  0.23043400  0.23043400  1
  Rh  Rh3  1  0.00000000  0.76956600  0.76956600  1
