# generated using pymatgen
data_Ti2CoMo
_symmetry_space_group_name_H-M   'P 1'
_cell_length_a   10.60037010
_cell_length_b   10.60037010
_cell_length_c   10.60037010
_cell_angle_alpha   133.26662049
_cell_angle_beta   117.54625559
_cell_angle_gamma   81.49713842
_symmetry_Int_Tables_number   1
_chemical_formula_structural   Ti2CoMo
_chemical_formula_sum   'Ti2 Co1 Mo1'
_cell_volume   742.17991873
_cell_formula_units_Z   1
loop_
 _symmetry_equiv_pos_site_id
 _symmetry_equiv_pos_as_xyz
  1  'x, y, z'
loop_
 _atom_site_type_symbol
 _atom_site_label
 _atom_site_symmetry_multiplicity
 _atom_site_fract_x
 _atom_site_fract_y
 _atom_site_fract_z
 _atom_site_occupancy
  Ti  Ti0  1  0.00000000  0.24357900  0.24357900  1
  Ti  Ti1  1  0.00000000  0.75642100  0.75642100  1
  Co  Co2  1  0.00000000  0.00000000  0.00000000  1
  Mo  Mo3  1  0.00000000  0.50000000  0.50000000  1
