# generated using pymatgen
data_MgScNi2
_symmetry_space_group_name_H-M   'P 1'
_cell_length_a   10.08114717
_cell_length_b   10.08114717
_cell_length_c   10.08114717
_cell_angle_alpha   124.71514265
_cell_angle_beta   118.45015417
_cell_angle_gamma   87.36972598
_symmetry_Int_Tables_number   1
_chemical_formula_structural   MgScNi2
_chemical_formula_sum   'Mg1 Sc1 Ni2'
_cell_volume   703.52337232
_cell_formula_units_Z   1
loop_
 _symmetry_equiv_pos_site_id
 _symmetry_equiv_pos_as_xyz
  1  'x, y, z'
loop_
 _atom_site_type_symbol
 _atom_site_label
 _atom_site_symmetry_multiplicity
 _atom_site_fract_x
 _atom_site_fract_y
 _atom_site_fract_z
 _atom_site_occupancy
  Mg  Mg0  1  0.00000000  0.00000000  0.00000000  1
  Sc  Sc1  1  0.00000000  0.50000000  0.50000000  1
  Ni  Ni2  1  0.00000000  0.27480400  0.27480400  1
  Ni  Ni3  1  0.00000000  0.72519600  0.72519600  1
