# generated using pymatgen
data_Mg14FeW
_symmetry_space_group_name_H-M   'P 1'
_cell_length_a   6.23440470
_cell_length_b   6.23440470
_cell_length_c   9.90912500
_cell_angle_alpha   90.00000000
_cell_angle_beta   90.00000000
_cell_angle_gamma   122.54933811
_symmetry_Int_Tables_number   1
_chemical_formula_structural   Mg14FeW
_chemical_formula_sum   'Mg14 Fe1 W1'
_cell_volume   324.65044644
_cell_formula_units_Z   1
loop_
 _symmetry_equiv_pos_site_id
 _symmetry_equiv_pos_as_xyz
  1  'x, y, z'
loop_
 _atom_site_type_symbol
 _atom_site_label
 _atom_site_symmetry_multiplicity
 _atom_site_fract_x
 _atom_site_fract_y
 _atom_site_fract_z
 _atom_site_occupancy
  Mg  Mg0  1  0.83344100  0.16655900  0.00000000  1
  Mg  Mg1  1  0.33374500  0.66625500  0.00000000  1
  Mg  Mg2  1  0.32796200  0.16614100  0.50000000  1
  Mg  Mg3  1  0.33156800  0.16996000  0.00000000  1
  Mg  Mg4  1  0.83385900  0.67203800  0.50000000  1
  Mg  Mg5  1  0.83004000  0.66843200  0.00000000  1
  Mg  Mg6  1  0.16307000  0.33563900  0.27092800  1
  Mg  Mg7  1  0.16307000  0.33563900  0.72907200  1
  Mg  Mg8  1  0.66436100  0.83693000  0.27092800  1
  Mg  Mg9  1  0.66436100  0.83693000  0.72907200  1
  Mg  Mg10  1  0.67782800  0.32217200  0.26426500  1
  Mg  Mg11  1  0.67782800  0.32217200  0.73573500  1
  Mg  Mg12  1  0.17424100  0.82575900  0.25470400  1
  Mg  Mg13  1  0.17424100  0.82575900  0.74529600  1
  Fe  Fe14  1  0.82803000  0.17197000  0.50000000  1
  W  W15  1  0.32235800  0.67764200  0.50000000  1
