# generated using pymatgen
data_HoTm3
_symmetry_space_group_name_H-M   'P 1'
_cell_length_a   7.11810856
_cell_length_b   7.11810856
_cell_length_c   5.56793400
_cell_angle_alpha   90.00000000
_cell_angle_beta   90.00000000
_cell_angle_gamma   120.00000519
_symmetry_Int_Tables_number   1
_chemical_formula_structural   HoTm3
_chemical_formula_sum   'Ho2 Tm6'
_cell_volume   244.31712095
_cell_formula_units_Z   2
loop_
 _symmetry_equiv_pos_site_id
 _symmetry_equiv_pos_as_xyz
  1  'x, y, z'
loop_
 _atom_site_type_symbol
 _atom_site_label
 _atom_site_symmetry_multiplicity
 _atom_site_fract_x
 _atom_site_fract_y
 _atom_site_fract_z
 _atom_site_occupancy
  Ho  Ho0  1  0.33333300  0.66666700  0.75000000  1
  Ho  Ho1  1  0.66666700  0.33333300  0.25000000  1
  Tm  Tm2  1  0.16636500  0.33273000  0.25000000  1
  Tm  Tm3  1  0.66727000  0.83363500  0.25000000  1
  Tm  Tm4  1  0.16636500  0.83363500  0.25000000  1
  Tm  Tm5  1  0.83363500  0.66727000  0.75000000  1
  Tm  Tm6  1  0.33273000  0.16636500  0.75000000  1
  Tm  Tm7  1  0.83363500  0.16636500  0.75000000  1
