# generated using pymatgen
data_UMn3
_symmetry_space_group_name_H-M   'P 1'
_cell_length_a   4.62358313
_cell_length_b   4.62358313
_cell_length_c   4.62358313
_cell_angle_alpha   131.48058419
_cell_angle_beta   131.48058419
_cell_angle_gamma   71.05063526
_symmetry_Int_Tables_number   1
_chemical_formula_structural   UMn3
_chemical_formula_sum   'U1 Mn3'
_cell_volume   54.32015400
_cell_formula_units_Z   1
loop_
 _symmetry_equiv_pos_site_id
 _symmetry_equiv_pos_as_xyz
  1  'x, y, z'
loop_
 _atom_site_type_symbol
 _atom_site_label
 _atom_site_symmetry_multiplicity
 _atom_site_fract_x
 _atom_site_fract_y
 _atom_site_fract_z
 _atom_site_occupancy
  U  U0  1  0.00000000  0.00000000  0.00000000  1
  Mn  Mn1  1  0.50000000  0.50000000  0.00000000  1
  Mn  Mn2  1  0.25000000  0.75000200  0.50000200  1
  Mn  Mn3  1  0.75000200  0.25000000  0.50000200  1
