# generated using pymatgen
data_Tm2AgSb3
_symmetry_space_group_name_H-M   'P 1'
_cell_length_a   8.98262000
_cell_length_b   8.98262000
_cell_length_c   39.70125700
_cell_angle_alpha   90.00000000
_cell_angle_beta   90.00000000
_cell_angle_gamma   90.00000000
_symmetry_Int_Tables_number   1
_chemical_formula_structural   Tm2AgSb3
_chemical_formula_sum   'Tm2 Ag1 Sb3'
_cell_volume   3203.39366810
_cell_formula_units_Z   1
loop_
 _symmetry_equiv_pos_site_id
 _symmetry_equiv_pos_as_xyz
  1  'x, y, z'
loop_
 _atom_site_type_symbol
 _atom_site_label
 _atom_site_symmetry_multiplicity
 _atom_site_fract_x
 _atom_site_fract_y
 _atom_site_fract_z
 _atom_site_occupancy
  Tm  Tm0  1  0.50000000  0.50000000  0.24310000  1
  Tm  Tm1  1  0.50000000  0.50000000  0.75690000  1
  Ag  Ag2  1  0.50000000  0.50000000  0.50000000  1
  Sb  Sb3  1  0.50000000  0.50000000  0.69109200  1
  Sb  Sb4  1  0.50000000  0.50000000  0.30890800  1
  Sb  Sb5  1  0.50000000  0.50000000  0.00000000  1
