data_image0
_chemical_formula_structural       Ge4Ho4Mg2
_chemical_formula_sum              "Ge4 Ho4 Mg2"
_cell_length_a       7.2378
_cell_length_b       7.2378
_cell_length_c       4.22811
_cell_angle_alpha    90
_cell_angle_beta     90
_cell_angle_gamma    90

_space_group_name_H-M_alt    "P 1"
_space_group_IT_number       1

loop_
  _space_group_symop_operation_xyz
  'x, y, z'

loop_
  _atom_site_type_symbol
  _atom_site_label
  _atom_site_symmetry_multiplicity
  _atom_site_fract_x
  _atom_site_fract_y
  _atom_site_fract_z
  _atom_site_occupancy
  Ge  Ge1       1.0  0.62400  0.12400  0.00000  1.0000
  Ge  Ge2       1.0  0.12400  0.37600  0.00000  1.0000
  Ge  Ge3       1.0  0.87600  0.62400  0.00000  1.0000
  Ge  Ge4       1.0  0.37600  0.87600  0.00000  1.0000
  Ho  Ho1       1.0  0.32300  0.17700  0.50000  1.0000
  Ho  Ho2       1.0  0.82300  0.32300  0.50000  1.0000
  Ho  Ho3       1.0  0.17700  0.67700  0.50000  1.0000
  Ho  Ho4       1.0  0.67700  0.82300  0.50000  1.0000
  Mg  Mg1       1.0  0.00000  0.00000  0.00000  1.0000
  Mg  Mg2       1.0  0.50000  0.50000  0.00000  1.0000
