data_image0
_chemical_formula_structural       HfSe2
_chemical_formula_sum              "Hf1 Se2"
_cell_length_a       3.74895
_cell_length_b       3.74891
_cell_length_c       6.27709
_cell_angle_alpha    90
_cell_angle_beta     90.0058
_cell_angle_gamma    120

_space_group_name_H-M_alt    "P 1"
_space_group_IT_number       1

loop_
  _space_group_symop_operation_xyz
  'x, y, z'

loop_
  _atom_site_type_symbol
  _atom_site_label
  _atom_site_symmetry_multiplicity
  _atom_site_fract_x
  _atom_site_fract_y
  _atom_site_fract_z
  _atom_site_occupancy
  Hf  Hf1       1.0  0.00000  0.00000  0.00000  1.0000
  Se  Se1       1.0  0.33300  0.66700  0.25200  1.0000
  Se  Se2       1.0  0.66700  0.33300  0.74800  1.0000
