data_image0
_chemical_formula_structural       Fe3O7P
_chemical_formula_sum              "Fe3 O7 P1"
_cell_length_a       5.16546
_cell_length_b       5.16546
_cell_length_c       5.16546
_cell_angle_alpha    101.723
_cell_angle_beta     101.723
_cell_angle_gamma    101.723

_space_group_name_H-M_alt    "P 1"
_space_group_IT_number       1

loop_
  _space_group_symop_operation_xyz
  'x, y, z'

loop_
  _atom_site_type_symbol
  _atom_site_label
  _atom_site_symmetry_multiplicity
  _atom_site_fract_x
  _atom_site_fract_y
  _atom_site_fract_z
  _atom_site_occupancy
  Fe  Fe1       1.0  0.85100  0.46100  0.46100  1.0000
  Fe  Fe2       1.0  0.46100  0.85100  0.46100  1.0000
  Fe  Fe3       1.0  0.46100  0.46100  0.85100  1.0000
  O   O1        1.0  0.85000  0.16800  0.16800  1.0000
  O   O2        1.0  0.16800  0.85000  0.16800  1.0000
  O   O3        1.0  0.61300  0.61300  0.23300  1.0000
  O   O4        1.0  0.61300  0.23300  0.61300  1.0000
  O   O5        1.0  0.23300  0.61300  0.61300  1.0000
  O   O6        1.0  0.77000  0.77000  0.77000  1.0000
  O   O7        1.0  0.16800  0.16800  0.85000  1.0000
  P   P1        1.0  0.00013  0.00013  0.00013  1.0000
