data_image0
_chemical_formula_structural       Ba2H2I2
_chemical_formula_sum              "Ba2 H2 I2"
_cell_length_a       4.74074
_cell_length_b       4.74074
_cell_length_c       7.83049
_cell_angle_alpha    90
_cell_angle_beta     90
_cell_angle_gamma    90

_space_group_name_H-M_alt    "P 1"
_space_group_IT_number       1

loop_
  _space_group_symop_operation_xyz
  'x, y, z'

loop_
  _atom_site_type_symbol
  _atom_site_label
  _atom_site_symmetry_multiplicity
  _atom_site_fract_x
  _atom_site_fract_y
  _atom_site_fract_z
  _atom_site_occupancy
  Ba  Ba1       1.0  0.25000  0.25000  0.17400  1.0000
  Ba  Ba2       1.0  0.75000  0.75000  0.82600  1.0000
  H   H1        1.0  0.75000  0.25000  0.00000  1.0000
  H   H2        1.0  0.25000  0.75000  0.00000  1.0000
  I   I1        1.0  0.75000  0.75000  0.34200  1.0000
  I   I2        1.0  0.25000  0.25000  0.65800  1.0000
