data_image0
_chemical_formula_structural       EuGa4
_chemical_formula_sum              "Eu1 Ga4"
_cell_length_a       4.37124
_cell_length_b       4.37124
_cell_length_c       6.14632
_cell_angle_alpha    110.83
_cell_angle_beta     110.83
_cell_angle_gamma    90

_space_group_name_H-M_alt    "P 1"
_space_group_IT_number       1

loop_
  _space_group_symop_operation_xyz
  'x, y, z'

loop_
  _atom_site_type_symbol
  _atom_site_label
  _atom_site_symmetry_multiplicity
  _atom_site_fract_x
  _atom_site_fract_y
  _atom_site_fract_z
  _atom_site_occupancy
  Eu  Eu1       1.0  0.00000  0.00000  0.00000  1.0000
  Ga  Ga1       1.0  0.61600  0.61600  0.23100  1.0000
  Ga  Ga2       1.0  0.75000  0.25000  0.50000  1.0000
  Ga  Ga3       1.0  0.25000  0.75000  0.50000  1.0000
  Ga  Ga4       1.0  0.38400  0.38400  0.76900  1.0000
