data_image0
_chemical_formula_structural       AgNiO2
_chemical_formula_sum              "Ag1 Ni1 O2"
_cell_length_a       2.93829
_cell_length_b       2.93829
_cell_length_c       6.35824
_cell_angle_alpha    76.6404
_cell_angle_beta     103.36
_cell_angle_gamma    120

_space_group_name_H-M_alt    "P 1"
_space_group_IT_number       1

loop_
  _space_group_symop_operation_xyz
  'x, y, z'

loop_
  _atom_site_type_symbol
  _atom_site_label
  _atom_site_symmetry_multiplicity
  _atom_site_fract_x
  _atom_site_fract_y
  _atom_site_fract_z
  _atom_site_occupancy
  Ag  Ag1       1.0  0.00000  0.00000  0.00000  1.0000
  Ni  Ni1       1.0  0.50000  0.50000  0.50000  1.0000
  O   O1        1.0  0.11200  0.88800  0.33500  1.0000
  O   O2        1.0  0.88800  0.11200  0.66500  1.0000
