data_image0
_chemical_formula_structural       C2H2K2O4
_chemical_formula_sum              "C2 H2 K2 O4"
_cell_length_a       4.45068
_cell_length_b       4.45068
_cell_length_c       6.82594
_cell_angle_alpha    90
_cell_angle_beta     90
_cell_angle_gamma    98.1969

_space_group_name_H-M_alt    "P 1"
_space_group_IT_number       1

loop_
  _space_group_symop_operation_xyz
  'x, y, z'

loop_
  _atom_site_type_symbol
  _atom_site_label
  _atom_site_symmetry_multiplicity
  _atom_site_fract_x
  _atom_site_fract_y
  _atom_site_fract_z
  _atom_site_occupancy
  C   C1        1.0  0.39800  0.60200  0.25000  1.0000
  C   C2        1.0  0.60200  0.39800  0.75000  1.0000
  H   H1        1.0  0.56400  0.43600  0.25000  1.0000
  H   H2        1.0  0.43600  0.56400  0.75000  1.0000
  K   K1        1.0  0.00000  0.00000  0.00000  1.0000
  K   K2        1.0  0.00000  0.00000  0.50000  1.0000
  O   O1        1.0  0.11800  0.49400  0.25000  1.0000
  O   O2        1.0  0.50600  0.88200  0.25000  1.0000
  O   O3        1.0  0.49400  0.11800  0.75000  1.0000
  O   O4        1.0  0.88200  0.50600  0.75000  1.0000
