data_image0
_chemical_formula_structural       H2O6P2Zr
_chemical_formula_sum              "H2 O6 P2 Zr1"
_cell_length_a       5.44701
_cell_length_b       5.44712
_cell_length_c       5.38396
_cell_angle_alpha    89.9999
_cell_angle_beta     89.9996
_cell_angle_gamma    120.001

_space_group_name_H-M_alt    "P 1"
_space_group_IT_number       1

loop_
  _space_group_symop_operation_xyz
  'x, y, z'

loop_
  _atom_site_type_symbol
  _atom_site_label
  _atom_site_symmetry_multiplicity
  _atom_site_fract_x
  _atom_site_fract_y
  _atom_site_fract_z
  _atom_site_occupancy
  H   H1        1.0  0.66700  0.33300  0.43300  1.0000
  H   H2        1.0  0.33300  0.66700  0.56700  1.0000
  O   O1        1.0  0.64200  0.84400  0.22400  1.0000
  O   O2        1.0  0.20200  0.35800  0.22400  1.0000
  O   O3        1.0  0.15600  0.79800  0.22400  1.0000
  O   O4        1.0  0.84400  0.20200  0.77600  1.0000
  O   O5        1.0  0.79800  0.64200  0.77600  1.0000
  O   O6        1.0  0.35800  0.15600  0.77600  1.0000
  P   P1        1.0  0.33300  0.66700  0.30700  1.0000
  P   P2        1.0  0.66700  0.33300  0.69300  1.0000
  Zr  Zr1       1.0  0.00000  0.00000  0.00000  1.0000
