data_image0
_chemical_formula_structural       B4Fe2Mo
_chemical_formula_sum              "B4 Fe2 Mo1"
_cell_length_a       2.97906
_cell_length_b       3.0942
_cell_length_c       6.64905
_cell_angle_alpha    103.455
_cell_angle_beta     102.945
_cell_angle_gamma    90

_space_group_name_H-M_alt    "P 1"
_space_group_IT_number       1

loop_
  _space_group_symop_operation_xyz
  'x, y, z'

loop_
  _atom_site_type_symbol
  _atom_site_label
  _atom_site_symmetry_multiplicity
  _atom_site_fract_x
  _atom_site_fract_y
  _atom_site_fract_z
  _atom_site_occupancy
  B   B1        1.0  0.07430  0.57400  0.14900  1.0000
  B   B2        1.0  0.65200  0.65200  0.30500  1.0000
  B   B3        1.0  0.34800  0.34800  0.69500  1.0000
  B   B4        1.0  0.92600  0.42600  0.85100  1.0000
  Fe  Fe1       1.0  0.18400  0.18400  0.36800  1.0000
  Fe  Fe2       1.0  0.81600  0.81600  0.63200  1.0000
  Mo  Mo1       1.0  0.50000  0.00000  0.00000  1.0000
