data_image0
_chemical_formula_structural       C2K2MgO6
_chemical_formula_sum              "C2 K2 Mg1 O6"
_cell_length_a       5.15315
_cell_length_b       5.15315
_cell_length_c       6.37945
_cell_angle_alpha    66.1786
_cell_angle_beta     113.821
_cell_angle_gamma    120

_space_group_name_H-M_alt    "P 1"
_space_group_IT_number       1

loop_
  _space_group_symop_operation_xyz
  'x, y, z'

loop_
  _atom_site_type_symbol
  _atom_site_label
  _atom_site_symmetry_multiplicity
  _atom_site_fract_x
  _atom_site_fract_y
  _atom_site_fract_z
  _atom_site_occupancy
  C   C1        1.0  0.40400  0.59600  0.21200  1.0000
  C   C2        1.0  0.59600  0.40400  0.78800  1.0000
  K   K1        1.0  0.79000  0.21000  0.36900  1.0000
  K   K2        1.0  0.21000  0.79000  0.63100  1.0000
  Mg  Mg1       1.0  0.00000  0.00000  0.00000  1.0000
  O   O1        1.0  0.26000  0.30400  0.21700  1.0000
  O   O2        1.0  0.26000  0.74000  0.21700  1.0000
  O   O3        1.0  0.69600  0.74000  0.21700  1.0000
  O   O4        1.0  0.74000  0.26000  0.78300  1.0000
  O   O5        1.0  0.30400  0.26000  0.78300  1.0000
  O   O6        1.0  0.74000  0.69600  0.78300  1.0000
