data_image0
_chemical_formula_structural       H8Li3N4Na
_chemical_formula_sum              "H8 Li3 N4 Na1"
_cell_length_a       4.97085
_cell_length_b       4.97085
_cell_length_c       6.63836
_cell_angle_alpha    111.987
_cell_angle_beta     111.987
_cell_angle_gamma    90

_space_group_name_H-M_alt    "P 1"
_space_group_IT_number       1

loop_
  _space_group_symop_operation_xyz
  'x, y, z'

loop_
  _atom_site_type_symbol
  _atom_site_label
  _atom_site_symmetry_multiplicity
  _atom_site_fract_x
  _atom_site_fract_y
  _atom_site_fract_z
  _atom_site_occupancy
  H   H1        1.0  0.54100  0.44300  0.22600  1.0000
  H   H2        1.0  0.68400  0.78200  0.22600  1.0000
  H   H3        1.0  0.92200  0.07310  0.34800  1.0000
  H   H4        1.0  0.42600  0.27500  0.34800  1.0000
  H   H5        1.0  0.72500  0.07780  0.65200  1.0000
  H   H6        1.0  0.92700  0.57400  0.65200  1.0000
  H   H7        1.0  0.55700  0.31600  0.77400  1.0000
  H   H8        1.0  0.21800  0.45900  0.77400  1.0000
  Li  Li1       1.0  0.00000  0.00000  0.00000  1.0000
  Li  Li2       1.0  0.01050  0.51000  0.02090  1.0000
  Li  Li3       1.0  0.49000  0.99000  0.97900  1.0000
  N   N1        1.0  0.35100  0.33800  0.20800  1.0000
  N   N2        1.0  0.85700  0.87000  0.20800  1.0000
  N   N3        1.0  0.66200  0.14300  0.79200  1.0000
  N   N4        1.0  0.13000  0.64900  0.79200  1.0000
  Na  Na1       1.0  0.25000  0.75000  0.50000  1.0000
