data_image0
_chemical_formula_structural       BC3H12N
_chemical_formula_sum              "B1 C3 H12 N1"
_cell_length_a       5.52136
_cell_length_b       5.52117
_cell_length_c       5.52135
_cell_angle_alpha    108.501
_cell_angle_beta     108.501
_cell_angle_gamma    108.501

_space_group_name_H-M_alt    "P 1"
_space_group_IT_number       1

loop_
  _space_group_symop_operation_xyz
  'x, y, z'

loop_
  _atom_site_type_symbol
  _atom_site_label
  _atom_site_symmetry_multiplicity
  _atom_site_fract_x
  _atom_site_fract_y
  _atom_site_fract_z
  _atom_site_occupancy
  B   B1        1.0  0.92200  0.92200  0.92200  1.0000
  C   C1        1.0  0.46400  0.73400  0.46400  1.0000
  C   C2        1.0  0.73400  0.46400  0.46400  1.0000
  C   C3        1.0  0.46400  0.46400  0.73400  1.0000
  H   H1        1.0  0.83400  0.05990  0.05960  1.0000
  H   H2        1.0  0.05960  0.83400  0.06000  1.0000
  H   H3        1.0  0.27400  0.54400  0.27400  1.0000
  H   H4        1.0  0.54400  0.27400  0.27400  1.0000
  H   H5        1.0  0.86500  0.59600  0.39700  1.0000
  H   H6        1.0  0.59600  0.86500  0.39700  1.0000
  H   H7        1.0  0.27400  0.27400  0.54400  1.0000
  H   H8        1.0  0.39700  0.86500  0.59600  1.0000
  H   H9        1.0  0.86500  0.39700  0.59600  1.0000
  H   H10       1.0  0.06000  0.05960  0.83400  1.0000
  H   H11       1.0  0.59600  0.39700  0.86500  1.0000
  H   H12       1.0  0.39700  0.59600  0.86500  1.0000
  N   N1        1.0  0.64300  0.64300  0.64300  1.0000
