data_image0
_chemical_formula_structural       Os4Te8
_chemical_formula_sum              "Os4 Te8"
_cell_length_a       6.45718
_cell_length_b       6.45718
_cell_length_c       6.45718
_cell_angle_alpha    90
_cell_angle_beta     90
_cell_angle_gamma    90

_space_group_name_H-M_alt    "P 1"
_space_group_IT_number       1

loop_
  _space_group_symop_operation_xyz
  'x, y, z'

loop_
  _atom_site_type_symbol
  _atom_site_label
  _atom_site_symmetry_multiplicity
  _atom_site_fract_x
  _atom_site_fract_y
  _atom_site_fract_z
  _atom_site_occupancy
  Os  Os1       1.0  0.00000  0.00000  0.00000  1.0000
  Os  Os2       1.0  0.50000  0.50000  0.00000  1.0000
  Os  Os3       1.0  0.50000  0.00000  0.50000  1.0000
  Os  Os4       1.0  0.00000  0.50000  0.50000  1.0000
  Te  Te1       1.0  0.87200  0.37200  0.12800  1.0000
  Te  Te2       1.0  0.62800  0.87200  0.12800  1.0000
  Te  Te3       1.0  0.37200  0.37200  0.37200  1.0000
  Te  Te4       1.0  0.12800  0.87200  0.37200  1.0000
  Te  Te5       1.0  0.87200  0.12800  0.62800  1.0000
  Te  Te6       1.0  0.62800  0.62800  0.62800  1.0000
  Te  Te7       1.0  0.37200  0.12800  0.87200  1.0000
  Te  Te8       1.0  0.12800  0.62800  0.87200  1.0000
