data_image0
_chemical_formula_structural       K4Li4O4
_chemical_formula_sum              "K4 Li4 O4"
_cell_length_a       5.35234
_cell_length_b       5.35234
_cell_length_c       6.41364
_cell_angle_alpha    90
_cell_angle_beta     90
_cell_angle_gamma    73.2834

_space_group_name_H-M_alt    "P 1"
_space_group_IT_number       1

loop_
  _space_group_symop_operation_xyz
  'x, y, z'

loop_
  _atom_site_type_symbol
  _atom_site_label
  _atom_site_symmetry_multiplicity
  _atom_site_fract_x
  _atom_site_fract_y
  _atom_site_fract_z
  _atom_site_occupancy
  K   K1        1.0  0.17800  0.17800  0.00000  1.0000
  K   K2        1.0  0.82200  0.82200  0.00000  1.0000
  K   K3        1.0  0.32200  0.32200  0.50000  1.0000
  K   K4        1.0  0.67800  0.67800  0.50000  1.0000
  Li  Li1       1.0  0.37400  0.62600  0.12600  1.0000
  Li  Li2       1.0  0.87400  0.12600  0.37400  1.0000
  Li  Li3       1.0  0.12600  0.87400  0.62600  1.0000
  Li  Li4       1.0  0.62600  0.37400  0.87400  1.0000
  O   O1        1.0  0.66900  0.33100  0.16700  1.0000
  O   O2        1.0  0.16900  0.83100  0.33300  1.0000
  O   O3        1.0  0.83100  0.16900  0.66700  1.0000
  O   O4        1.0  0.33100  0.66900  0.83300  1.0000
