data_image0
_chemical_formula_structural       KO8S2V
_chemical_formula_sum              "K1 O8 S2 V1"
_cell_length_a       4.75237
_cell_length_b       4.75237
_cell_length_c       8.18557
_cell_angle_alpha    73.1247
_cell_angle_beta     106.875
_cell_angle_gamma    120

_space_group_name_H-M_alt    "P 1"
_space_group_IT_number       1

loop_
  _space_group_symop_operation_xyz
  'x, y, z'

loop_
  _atom_site_type_symbol
  _atom_site_label
  _atom_site_symmetry_multiplicity
  _atom_site_fract_x
  _atom_site_fract_y
  _atom_site_fract_z
  _atom_site_occupancy
  K   K1        1.0  0.00000  0.00000  0.00000  1.0000
  O   O1        1.0  0.69600  0.30400  0.08810  1.0000
  O   O2        1.0  0.76500  0.91500  0.34300  1.0000
  O   O3        1.0  0.49300  0.23500  0.34300  1.0000
  O   O4        1.0  0.08480  0.50700  0.34300  1.0000
  O   O5        1.0  0.91500  0.49300  0.65700  1.0000
  O   O6        1.0  0.50700  0.76500  0.65700  1.0000
  O   O7        1.0  0.23500  0.08480  0.65700  1.0000
  O   O8        1.0  0.30400  0.69600  0.91200  1.0000
  S   S1        1.0  0.75900  0.24100  0.27700  1.0000
  S   S2        1.0  0.24100  0.75900  0.72300  1.0000
  V   V1        1.0  0.50000  0.50000  0.50000  1.0000
