data_image0
_chemical_formula_structural       Be8W4
_chemical_formula_sum              "Be8 W4"
_cell_length_a       4.45347
_cell_length_b       4.45347
_cell_length_c       7.33298
_cell_angle_alpha    90
_cell_angle_beta     90
_cell_angle_gamma    120

_space_group_name_H-M_alt    "P 1"
_space_group_IT_number       1

loop_
  _space_group_symop_operation_xyz
  'x, y, z'

loop_
  _atom_site_type_symbol
  _atom_site_label
  _atom_site_symmetry_multiplicity
  _atom_site_fract_x
  _atom_site_fract_y
  _atom_site_fract_z
  _atom_site_occupancy
  Be  Be1       1.0  0.00000  0.00000  0.00000  1.0000
  Be  Be2       1.0  0.34000  0.17000  0.25000  1.0000
  Be  Be3       1.0  0.83000  0.17000  0.25000  1.0000
  Be  Be4       1.0  0.83000  0.66000  0.25000  1.0000
  Be  Be5       1.0  0.00000  0.00000  0.50000  1.0000
  Be  Be6       1.0  0.17000  0.34000  0.75000  1.0000
  Be  Be7       1.0  0.17000  0.83000  0.75000  1.0000
  Be  Be8       1.0  0.66000  0.83000  0.75000  1.0000
  W   W1        1.0  0.33300  0.66700  0.06300  1.0000
  W   W2        1.0  0.33300  0.66700  0.43700  1.0000
  W   W3        1.0  0.66700  0.33300  0.56300  1.0000
  W   W4        1.0  0.66700  0.33300  0.93700  1.0000
