data_image0
_chemical_formula_structural       Br2Ni
_chemical_formula_sum              "Br2 Ni1"
_cell_length_a       3.68064
_cell_length_b       3.68064
_cell_length_c       6.60307
_cell_angle_alpha    73.817
_cell_angle_beta     106.183
_cell_angle_gamma    120

_space_group_name_H-M_alt    "P 1"
_space_group_IT_number       1

loop_
  _space_group_symop_operation_xyz
  'x, y, z'

loop_
  _atom_site_type_symbol
  _atom_site_label
  _atom_site_symmetry_multiplicity
  _atom_site_fract_x
  _atom_site_fract_y
  _atom_site_fract_z
  _atom_site_occupancy
  Br  Br1       1.0  0.74100  0.25900  0.22300  1.0000
  Br  Br2       1.0  0.25900  0.74100  0.77700  1.0000
  Ni  Ni1       1.0  0.00000  0.00000  0.00000  1.0000
