data_image0
_chemical_formula_structural       Ba2C4H4O10
_chemical_formula_sum              "Ba2 C4 H4 O10"
_cell_length_a       6.37525
_cell_length_b       6.37525
_cell_length_c       6.88782
_cell_angle_alpha    115.506
_cell_angle_beta     64.4937
_cell_angle_gamma    104.004

_space_group_name_H-M_alt    "P 1"
_space_group_IT_number       1

loop_
  _space_group_symop_operation_xyz
  'x, y, z'

loop_
  _atom_site_type_symbol
  _atom_site_label
  _atom_site_symmetry_multiplicity
  _atom_site_fract_x
  _atom_site_fract_y
  _atom_site_fract_z
  _atom_site_occupancy
  Ba  Ba1       1.0  0.78300  0.21700  0.31800  1.0000
  Ba  Ba2       1.0  0.21700  0.78300  0.68200  1.0000
  C   C1        1.0  0.04040  0.76000  0.23800  1.0000
  C   C2        1.0  0.24000  0.96000  0.23800  1.0000
  C   C3        1.0  0.76000  0.04040  0.76200  1.0000
  C   C4        1.0  0.96000  0.24000  0.76200  1.0000
  H   H1        1.0  0.44100  0.34700  0.17700  1.0000
  H   H2        1.0  0.65300  0.55900  0.17700  1.0000
  H   H3        1.0  0.34700  0.44100  0.82300  1.0000
  H   H4        1.0  0.55900  0.65300  0.82300  1.0000
  O   O1        1.0  0.25800  0.08410  0.12800  1.0000
  O   O2        1.0  0.91600  0.74200  0.12800  1.0000
  O   O3        1.0  0.52300  0.47700  0.26800  1.0000
  O   O4        1.0  0.01760  0.63900  0.35100  1.0000
  O   O5        1.0  0.36100  0.98200  0.35100  1.0000
  O   O6        1.0  0.63900  0.01760  0.64900  1.0000
  O   O7        1.0  0.98200  0.36100  0.64900  1.0000
  O   O8        1.0  0.47700  0.52300  0.73200  1.0000
  O   O9        1.0  0.08410  0.25800  0.87200  1.0000
  O   O10       1.0  0.74200  0.91600  0.87200  1.0000
