data_image0
_chemical_formula_structural       C4H6K2O6
_chemical_formula_sum              "C4 H6 K2 O6"
_cell_length_a       3.72115
_cell_length_b       5.51884
_cell_length_c       9.73425
_cell_angle_alpha    101.123
_cell_angle_beta     88.4586
_cell_angle_gamma    92.5119

_space_group_name_H-M_alt    "P 1"
_space_group_IT_number       1

loop_
  _space_group_symop_operation_xyz
  'x, y, z'

loop_
  _atom_site_type_symbol
  _atom_site_label
  _atom_site_symmetry_multiplicity
  _atom_site_fract_x
  _atom_site_fract_y
  _atom_site_fract_z
  _atom_site_occupancy
  C   C1        1.0  0.51100  0.84600  0.19800  1.0000
  C   C2        1.0  0.76100  0.70700  0.39300  1.0000
  C   C3        1.0  0.23900  0.29300  0.60700  1.0000
  C   C4        1.0  0.48900  0.15400  0.80200  1.0000
  H   H1        1.0  0.99900  0.83000  0.39000  1.0000
  H   H2        1.0  0.83400  0.53000  0.41700  1.0000
  H   H3        1.0  0.57200  0.79600  0.47300  1.0000
  H   H4        1.0  0.42800  0.20400  0.52700  1.0000
  H   H5        1.0  0.16600  0.47000  0.58300  1.0000
  H   H6        1.0  0.00072  0.17000  0.61000  1.0000
  K   K1        1.0  0.12300  0.29100  0.12500  1.0000
  K   K2        1.0  0.87700  0.70900  0.87500  1.0000
  O   O1        1.0  0.34100  0.77800  0.08490  1.0000
  O   O2        1.0  0.59700  0.64600  0.25800  1.0000
  O   O3        1.0  0.60400  0.05960  0.25900  1.0000
  O   O4        1.0  0.39600  0.94000  0.74100  1.0000
  O   O5        1.0  0.40300  0.35400  0.74200  1.0000
  O   O6        1.0  0.65900  0.22200  0.91500  1.0000
