data_image0
_chemical_formula_structural       C4H12I4
_chemical_formula_sum              "C4 H12 I4"
_cell_length_a       4.62594
_cell_length_b       7.01389
_cell_length_c       9.8612
_cell_angle_alpha    90
_cell_angle_beta     90
_cell_angle_gamma    90

_space_group_name_H-M_alt    "P 1"
_space_group_IT_number       1

loop_
  _space_group_symop_operation_xyz
  'x, y, z'

loop_
  _atom_site_type_symbol
  _atom_site_label
  _atom_site_symmetry_multiplicity
  _atom_site_fract_x
  _atom_site_fract_y
  _atom_site_fract_z
  _atom_site_occupancy
  C   C1        1.0  0.64600  0.75000  0.10200  1.0000
  C   C2        1.0  0.14600  0.75000  0.39800  1.0000
  C   C3        1.0  0.85400  0.25000  0.60200  1.0000
  C   C4        1.0  0.35400  0.25000  0.89800  1.0000
  H   H1        1.0  0.41100  0.75000  0.08840  1.0000
  H   H2        1.0  0.72000  0.62000  0.15300  1.0000
  H   H3        1.0  0.72000  0.88000  0.15300  1.0000
  H   H4        1.0  0.22000  0.62000  0.34700  1.0000
  H   H5        1.0  0.22000  0.88000  0.34700  1.0000
  H   H6        1.0  0.91100  0.75000  0.41200  1.0000
  H   H7        1.0  0.08860  0.25000  0.58800  1.0000
  H   H8        1.0  0.78000  0.12000  0.65300  1.0000
  H   H9        1.0  0.78000  0.38000  0.65300  1.0000
  H   H10       1.0  0.28000  0.12000  0.84700  1.0000
  H   H11       1.0  0.28000  0.38000  0.84700  1.0000
  H   H12       1.0  0.58900  0.25000  0.91200  1.0000
  I   I1        1.0  0.16100  0.25000  0.09620  1.0000
  I   I2        1.0  0.66100  0.25000  0.40400  1.0000
  I   I3        1.0  0.33900  0.75000  0.59600  1.0000
  I   I4        1.0  0.83900  0.75000  0.90400  1.0000
