data_image0
_chemical_formula_structural       C4H12O2Se2
_chemical_formula_sum              "C4 H12 O2 Se2"
_cell_length_a       4.99123
_cell_length_b       6.01172
_cell_length_c       6.82475
_cell_angle_alpha    107.212
_cell_angle_beta     90.1981
_cell_angle_gamma    94.6595

_space_group_name_H-M_alt    "P 1"
_space_group_IT_number       1

loop_
  _space_group_symop_operation_xyz
  'x, y, z'

loop_
  _atom_site_type_symbol
  _atom_site_label
  _atom_site_symmetry_multiplicity
  _atom_site_fract_x
  _atom_site_fract_y
  _atom_site_fract_z
  _atom_site_occupancy
  C   C1        1.0  0.70000  0.84300  0.11700  1.0000
  C   C2        1.0  0.30500  0.24600  0.49000  1.0000
  C   C3        1.0  0.69500  0.75400  0.51000  1.0000
  C   C4        1.0  0.30000  0.15700  0.88300  1.0000
  H   H1        1.0  0.23900  0.21000  0.04270  1.0000
  H   H2        1.0  0.48100  0.84900  0.12900  1.0000
  H   H3        1.0  0.81000  0.00597  0.20800  1.0000
  H   H4        1.0  0.24200  0.35100  0.39500  1.0000
  H   H5        1.0  0.20800  0.06700  0.44200  1.0000
  H   H6        1.0  0.52500  0.24500  0.49700  1.0000
  H   H7        1.0  0.47500  0.75500  0.50300  1.0000
  H   H8        1.0  0.79200  0.93300  0.55800  1.0000
  H   H9        1.0  0.75800  0.64900  0.60500  1.0000
  H   H10       1.0  0.19000  0.99400  0.79200  1.0000
  H   H11       1.0  0.51900  0.15100  0.87100  1.0000
  H   H12       1.0  0.76100  0.79000  0.95700  1.0000
  O   O1        1.0  0.13600  0.62600  0.24300  1.0000
  O   O2        1.0  0.86400  0.37400  0.75700  1.0000
  Se  Se1       1.0  0.79300  0.59400  0.22900  1.0000
  Se  Se2       1.0  0.20700  0.40600  0.77100  1.0000
