data_image0
_chemical_formula_structural       C4H8O8
_chemical_formula_sum              "C4 H8 O8"
_cell_length_a       9.81122
_cell_length_b       3.32481
_cell_length_c       5.18162
_cell_angle_alpha    90
_cell_angle_beta     90
_cell_angle_gamma    90

_space_group_name_H-M_alt    "P 1"
_space_group_IT_number       1

loop_
  _space_group_symop_operation_xyz
  'x, y, z'

loop_
  _atom_site_type_symbol
  _atom_site_label
  _atom_site_symmetry_multiplicity
  _atom_site_fract_x
  _atom_site_fract_y
  _atom_site_fract_z
  _atom_site_occupancy
  C   C1        1.0  0.65500  0.17900  0.17200  1.0000
  C   C2        1.0  0.15500  0.32100  0.17200  1.0000
  C   C3        1.0  0.84500  0.67900  0.67200  1.0000
  C   C4        1.0  0.34500  0.82100  0.67200  1.0000
  H   H1        1.0  0.60000  0.05670  0.33900  1.0000
  H   H2        1.0  0.10000  0.44300  0.33900  1.0000
  H   H3        1.0  0.35800  0.53200  0.34700  1.0000
  H   H4        1.0  0.85800  0.96800  0.34700  1.0000
  H   H5        1.0  0.90000  0.55700  0.83900  1.0000
  H   H6        1.0  0.40000  0.94300  0.83900  1.0000
  H   H7        1.0  0.14200  0.03160  0.84700  1.0000
  H   H8        1.0  0.64200  0.46800  0.84700  1.0000
  O   O1        1.0  0.07910  0.14500  0.00003  1.0000
  O   O2        1.0  0.57900  0.35500  0.00003  1.0000
  O   O3        1.0  0.78100  0.14800  0.14700  1.0000
  O   O4        1.0  0.28100  0.35200  0.14700  1.0000
  O   O5        1.0  0.42100  0.64500  0.50000  1.0000
  O   O6        1.0  0.92100  0.85500  0.50000  1.0000
  O   O7        1.0  0.71900  0.64800  0.64700  1.0000
  O   O8        1.0  0.21900  0.85200  0.64700  1.0000
