data_image0
_chemical_formula_structural       C2H6N8Na2O2
_chemical_formula_sum              "C2 H6 N8 Na2 O2"
_cell_length_a       5.7414
_cell_length_b       5.51895
_cell_length_c       6.10498
_cell_angle_alpha    90
_cell_angle_beta     90
_cell_angle_gamma    90

_space_group_name_H-M_alt    "P 1"
_space_group_IT_number       1

loop_
  _space_group_symop_operation_xyz
  'x, y, z'

loop_
  _atom_site_type_symbol
  _atom_site_label
  _atom_site_symmetry_multiplicity
  _atom_site_fract_x
  _atom_site_fract_y
  _atom_site_fract_z
  _atom_site_occupancy
  C   C1        1.0  0.50000  0.01270  0.25000  1.0000
  C   C2        1.0  0.50000  0.98700  0.75000  1.0000
  H   H1        1.0  0.14000  0.57700  0.25000  1.0000
  H   H2        1.0  0.86000  0.57700  0.25000  1.0000
  H   H3        1.0  0.50000  0.81600  0.25000  1.0000
  H   H4        1.0  0.50000  0.18400  0.75000  1.0000
  H   H5        1.0  0.14000  0.42300  0.75000  1.0000
  H   H6        1.0  0.86000  0.42300  0.75000  1.0000
  N   N1        1.0  0.30700  0.15000  0.25000  1.0000
  N   N2        1.0  0.69300  0.15000  0.25000  1.0000
  N   N3        1.0  0.38600  0.38000  0.25000  1.0000
  N   N4        1.0  0.61400  0.38000  0.25000  1.0000
  N   N5        1.0  0.38600  0.62000  0.75000  1.0000
  N   N6        1.0  0.61400  0.62000  0.75000  1.0000
  N   N7        1.0  0.30700  0.85000  0.75000  1.0000
  N   N8        1.0  0.69300  0.85000  0.75000  1.0000
  Na  Na1       1.0  0.00000  0.00000  0.00000  1.0000
  Na  Na2       1.0  0.00000  0.00000  0.50000  1.0000
  O   O1        1.0  0.00000  0.68500  0.25000  1.0000
  O   O2        1.0  0.00000  0.31500  0.75000  1.0000
