data_image0
_chemical_formula_structural       H8Ni4Pr4Sn4
_chemical_formula_sum              "H8 Ni4 Pr4 Sn4"
_cell_length_a       8.52779
_cell_length_b       4.40535
_cell_length_c       7.6075
_cell_angle_alpha    90
_cell_angle_beta     90
_cell_angle_gamma    90

_space_group_name_H-M_alt    "P 1"
_space_group_IT_number       1

loop_
  _space_group_symop_operation_xyz
  'x, y, z'

loop_
  _atom_site_type_symbol
  _atom_site_label
  _atom_site_symmetry_multiplicity
  _atom_site_fract_x
  _atom_site_fract_y
  _atom_site_fract_z
  _atom_site_occupancy
  H   H1        1.0  0.56100  0.25000  0.08350  1.0000
  H   H2        1.0  0.93700  0.25000  0.08350  1.0000
  H   H3        1.0  0.06070  0.25000  0.41700  1.0000
  H   H4        1.0  0.43700  0.25000  0.41700  1.0000
  H   H5        1.0  0.56300  0.75000  0.58300  1.0000
  H   H6        1.0  0.93900  0.75000  0.58300  1.0000
  H   H7        1.0  0.06250  0.75000  0.91700  1.0000
  H   H8        1.0  0.43900  0.75000  0.91700  1.0000
  Ni  Ni1       1.0  0.74900  0.25000  0.08300  1.0000
  Ni  Ni2       1.0  0.24900  0.25000  0.41700  1.0000
  Ni  Ni3       1.0  0.75100  0.75000  0.58300  1.0000
  Ni  Ni4       1.0  0.25100  0.75000  0.91700  1.0000
  Pr  Pr1       1.0  0.00000  0.75000  0.25000  1.0000
  Pr  Pr2       1.0  0.50000  0.75000  0.25000  1.0000
  Pr  Pr3       1.0  0.50000  0.25000  0.75000  1.0000
  Pr  Pr4       1.0  0.00006  0.25000  0.75000  1.0000
  Sn  Sn1       1.0  0.25000  0.25000  0.08340  1.0000
  Sn  Sn2       1.0  0.75000  0.25000  0.41700  1.0000
  Sn  Sn3       1.0  0.25000  0.75000  0.58300  1.0000
  Sn  Sn4       1.0  0.75000  0.75000  0.91700  1.0000
