data_image0
_chemical_formula_structural       Li4Ni2O6
_chemical_formula_sum              "Li4 Ni2 O6"
_cell_length_a       4.8218
_cell_length_b       4.8218
_cell_length_c       4.9188
_cell_angle_alpha    99.4297
_cell_angle_beta     99.4297
_cell_angle_gamma    119.957

_space_group_name_H-M_alt    "P 1"
_space_group_IT_number       1

loop_
  _space_group_symop_operation_xyz
  'x, y, z'

loop_
  _atom_site_type_symbol
  _atom_site_label
  _atom_site_symmetry_multiplicity
  _atom_site_fract_x
  _atom_site_fract_y
  _atom_site_fract_z
  _atom_site_occupancy
  Li  Li1       1.0  0.50000  0.50000  0.00000  1.0000
  Li  Li2       1.0  0.66100  0.33900  0.50000  1.0000
  Li  Li3       1.0  0.33900  0.66100  0.50000  1.0000
  Li  Li4       1.0  0.00000  0.00000  0.50000  1.0000
  Ni  Ni1       1.0  0.83300  0.16700  0.00000  1.0000
  Ni  Ni2       1.0  0.16700  0.83300  0.00000  1.0000
  O   O1        1.0  0.93200  0.57400  0.22300  1.0000
  O   O2        1.0  0.57400  0.93200  0.22300  1.0000
  O   O3        1.0  0.21800  0.21800  0.22600  1.0000
  O   O4        1.0  0.78200  0.78200  0.77400  1.0000
  O   O5        1.0  0.42600  0.06850  0.77700  1.0000
  O   O6        1.0  0.06850  0.42600  0.77700  1.0000
