data_image0
_chemical_formula_structural       Al12Mg16Ni
_chemical_formula_sum              "Al12 Mg16 Ni1"
_cell_length_a       9.06546
_cell_length_b       9.06546
_cell_length_c       9.06546
_cell_angle_alpha    109.471
_cell_angle_beta     109.471
_cell_angle_gamma    109.471

_space_group_name_H-M_alt    "P 1"
_space_group_IT_number       1

loop_
  _space_group_symop_operation_xyz
  'x, y, z'

loop_
  _atom_site_type_symbol
  _atom_site_label
  _atom_site_symmetry_multiplicity
  _atom_site_fract_x
  _atom_site_fract_y
  _atom_site_fract_z
  _atom_site_occupancy
  Al  Al1       1.0  0.63600  0.81500  0.00000  1.0000
  Al  Al2       1.0  0.81500  0.63600  0.00000  1.0000
  Al  Al3       1.0  0.36400  0.36400  0.18000  1.0000
  Al  Al4       1.0  0.82000  0.18500  0.18500  1.0000
  Al  Al5       1.0  0.18500  0.82000  0.18500  1.0000
  Al  Al6       1.0  0.18000  0.36400  0.36400  1.0000
  Al  Al7       1.0  0.36400  0.18000  0.36400  1.0000
  Al  Al8       1.0  0.81500  0.00000  0.63600  1.0000
  Al  Al9       1.0  0.00000  0.81500  0.63600  1.0000
  Al  Al10      1.0  0.00000  0.63600  0.81500  1.0000
  Al  Al11      1.0  0.63600  0.00000  0.81500  1.0000
  Al  Al12      1.0  0.18500  0.18500  0.82000  1.0000
  Mg  Mg1       1.0  0.31300  0.60100  0.00000  1.0000
  Mg  Mg2       1.0  0.00000  0.32700  0.00000  1.0000
  Mg  Mg3       1.0  0.60100  0.31300  0.00000  1.0000
  Mg  Mg4       1.0  0.32700  0.00000  0.00000  1.0000
  Mg  Mg5       1.0  0.68700  0.68700  0.28700  1.0000
  Mg  Mg6       1.0  0.00000  0.60100  0.31300  1.0000
  Mg  Mg7       1.0  0.60100  0.00000  0.31300  1.0000
  Mg  Mg8       1.0  0.00000  0.00000  0.32700  1.0000
  Mg  Mg9       1.0  0.71300  0.39900  0.39900  1.0000
  Mg  Mg10      1.0  0.39900  0.71300  0.39900  1.0000
  Mg  Mg11      1.0  0.00000  0.31300  0.60100  1.0000
  Mg  Mg12      1.0  0.31300  0.00000  0.60100  1.0000
  Mg  Mg13      1.0  0.67300  0.67300  0.67300  1.0000
  Mg  Mg14      1.0  0.68700  0.28700  0.68700  1.0000
  Mg  Mg15      1.0  0.28700  0.68700  0.68700  1.0000
  Mg  Mg16      1.0  0.39900  0.39900  0.71300  1.0000
  Ni  Ni1       1.0  0.00000  0.00000  0.00000  1.0000
