data_image0
_chemical_formula_structural       KMg149
_chemical_formula_sum              "K1 Mg149"
_cell_length_a       15.9622
_cell_length_b       15.9622
_cell_length_c       15.6514
_cell_angle_alpha    90
_cell_angle_beta     90
_cell_angle_gamma    120

_space_group_name_H-M_alt    "P 1"
_space_group_IT_number       1

loop_
  _space_group_symop_operation_xyz
  'x, y, z'

loop_
  _atom_site_type_symbol
  _atom_site_label
  _atom_site_symmetry_multiplicity
  _atom_site_fract_x
  _atom_site_fract_y
  _atom_site_fract_z
  _atom_site_occupancy
  K   K1        1.0  0.00000  0.00000  0.00000  1.0000
  Mg  Mg1       1.0  0.60000  0.20100  0.00000  1.0000
  Mg  Mg2       1.0  0.40100  0.20100  0.00000  1.0000
  Mg  Mg3       1.0  0.79900  0.20100  0.00000  1.0000
  Mg  Mg4       1.0  0.00217  0.21000  0.00000  1.0000
  Mg  Mg5       1.0  0.20800  0.21000  0.00000  1.0000
  Mg  Mg6       1.0  0.79900  0.40000  0.00000  1.0000
  Mg  Mg7       1.0  0.60000  0.40000  0.00000  1.0000
  Mg  Mg8       1.0  0.40200  0.40200  0.00000  1.0000
  Mg  Mg9       1.0  0.00040  0.40200  0.00000  1.0000
  Mg  Mg10      1.0  0.20200  0.40300  0.00000  1.0000
  Mg  Mg11      1.0  0.59800  0.59800  0.00000  1.0000
  Mg  Mg12      1.0  0.00040  0.59800  0.00000  1.0000
  Mg  Mg13      1.0  0.79900  0.59900  0.00000  1.0000
  Mg  Mg14      1.0  0.20100  0.60000  0.00000  1.0000
  Mg  Mg15      1.0  0.40000  0.60000  0.00000  1.0000
  Mg  Mg16      1.0  0.00217  0.79200  0.00000  1.0000
  Mg  Mg17      1.0  0.79000  0.79200  0.00000  1.0000
  Mg  Mg18      1.0  0.59700  0.79800  0.00000  1.0000
  Mg  Mg19      1.0  0.20200  0.79800  0.00000  1.0000
  Mg  Mg20      1.0  0.40000  0.79900  0.00000  1.0000
  Mg  Mg21      1.0  0.20800  0.99800  0.00000  1.0000
  Mg  Mg22      1.0  0.79000  0.99800  0.00000  1.0000
  Mg  Mg23      1.0  0.40200  0.00000  0.00000  1.0000
  Mg  Mg24      1.0  0.59800  0.00000  0.00000  1.0000
  Mg  Mg25      1.0  0.86800  0.13200  0.16500  1.0000
  Mg  Mg26      1.0  0.26400  0.13200  0.16500  1.0000
  Mg  Mg27      1.0  0.86800  0.73600  0.16500  1.0000
  Mg  Mg28      1.0  0.66700  0.33300  0.16600  1.0000
  Mg  Mg29      1.0  0.46600  0.13300  0.16700  1.0000
  Mg  Mg30      1.0  0.66700  0.13300  0.16700  1.0000
  Mg  Mg31      1.0  0.86700  0.33300  0.16700  1.0000
  Mg  Mg32      1.0  0.46600  0.33300  0.16700  1.0000
  Mg  Mg33      1.0  0.66700  0.53400  0.16700  1.0000
  Mg  Mg34      1.0  0.86700  0.53400  0.16700  1.0000
  Mg  Mg35      1.0  0.26700  0.53400  0.16700  1.0000
  Mg  Mg36      1.0  0.46600  0.73300  0.16700  1.0000
  Mg  Mg37      1.0  0.26700  0.73300  0.16700  1.0000
  Mg  Mg38      1.0  0.06680  0.53300  0.16700  1.0000
  Mg  Mg39      1.0  0.46700  0.53300  0.16700  1.0000
  Mg  Mg40      1.0  0.46700  0.93300  0.16700  1.0000
  Mg  Mg41      1.0  0.26800  0.33600  0.16800  1.0000
  Mg  Mg42      1.0  0.06760  0.33600  0.16800  1.0000
  Mg  Mg43      1.0  0.66400  0.73200  0.16800  1.0000
  Mg  Mg44      1.0  0.06760  0.73200  0.16800  1.0000
  Mg  Mg45      1.0  0.26800  0.93200  0.16800  1.0000
  Mg  Mg46      1.0  0.66400  0.93200  0.16800  1.0000
  Mg  Mg47      1.0  0.06960  0.13900  0.17400  1.0000
  Mg  Mg48      1.0  0.86100  0.93000  0.17400  1.0000
  Mg  Mg49      1.0  0.06960  0.93000  0.17400  1.0000
  Mg  Mg50      1.0  0.80000  0.20000  0.33300  1.0000
  Mg  Mg51      1.0  0.40000  0.20000  0.33300  1.0000
  Mg  Mg52      1.0  0.80000  0.60000  0.33300  1.0000
  Mg  Mg53      1.0  0.60000  0.20000  0.33300  1.0000
  Mg  Mg54      1.0  0.80000  0.40000  0.33300  1.0000
  Mg  Mg55      1.0  0.60000  0.40000  0.33300  1.0000
  Mg  Mg56      1.0  0.20000  0.60000  0.33400  1.0000
  Mg  Mg57      1.0  0.40000  0.60000  0.33400  1.0000
  Mg  Mg58      1.0  0.40000  0.80000  0.33400  1.0000
  Mg  Mg59      1.0  0.60000  0.00019  0.33400  1.0000
  Mg  Mg60      1.0  0.40100  0.00019  0.33400  1.0000
  Mg  Mg61      1.0  0.40100  0.40000  0.33400  1.0000
  Mg  Mg62      1.0  0.00000  0.40000  0.33400  1.0000
  Mg  Mg63      1.0  0.60000  0.59900  0.33400  1.0000
  Mg  Mg64      1.0  0.00000  0.59900  0.33400  1.0000
  Mg  Mg65      1.0  0.00000  0.00000  0.33400  1.0000
  Mg  Mg66      1.0  0.20000  0.40000  0.33400  1.0000
  Mg  Mg67      1.0  0.20000  0.80000  0.33400  1.0000
  Mg  Mg68      1.0  0.60000  0.80000  0.33400  1.0000
  Mg  Mg69      1.0  0.79900  0.00043  0.33500  1.0000
  Mg  Mg70      1.0  0.20100  0.00043  0.33500  1.0000
  Mg  Mg71      1.0  0.20100  0.20100  0.33500  1.0000
  Mg  Mg72      1.0  0.00000  0.20100  0.33500  1.0000
  Mg  Mg73      1.0  0.79900  0.79900  0.33500  1.0000
  Mg  Mg74      1.0  0.00000  0.79900  0.33500  1.0000
  Mg  Mg75      1.0  0.06670  0.13300  0.50000  1.0000
  Mg  Mg76      1.0  0.86600  0.13400  0.50000  1.0000
  Mg  Mg77      1.0  0.26700  0.13400  0.50000  1.0000
  Mg  Mg78      1.0  0.46700  0.13400  0.50000  1.0000
  Mg  Mg79      1.0  0.66700  0.13400  0.50000  1.0000
  Mg  Mg80      1.0  0.46700  0.33300  0.50000  1.0000
  Mg  Mg81      1.0  0.86600  0.33300  0.50000  1.0000
  Mg  Mg82      1.0  0.66700  0.33300  0.50000  1.0000
  Mg  Mg83      1.0  0.06700  0.33400  0.50000  1.0000
  Mg  Mg84      1.0  0.26700  0.33400  0.50000  1.0000
  Mg  Mg85      1.0  0.86600  0.53300  0.50000  1.0000
  Mg  Mg86      1.0  0.66700  0.53300  0.50000  1.0000
  Mg  Mg87      1.0  0.46700  0.53300  0.50000  1.0000
  Mg  Mg88      1.0  0.06670  0.53300  0.50000  1.0000
  Mg  Mg89      1.0  0.26700  0.53400  0.50000  1.0000
  Mg  Mg90      1.0  0.86600  0.73300  0.50000  1.0000
  Mg  Mg91      1.0  0.06700  0.73300  0.50000  1.0000
  Mg  Mg92      1.0  0.66600  0.73300  0.50000  1.0000
  Mg  Mg93      1.0  0.46600  0.73300  0.50000  1.0000
  Mg  Mg94      1.0  0.26700  0.73300  0.50000  1.0000
  Mg  Mg95      1.0  0.66600  0.93300  0.50000  1.0000
  Mg  Mg96      1.0  0.26700  0.93300  0.50000  1.0000
  Mg  Mg97      1.0  0.46700  0.93300  0.50000  1.0000
  Mg  Mg98      1.0  0.86700  0.93300  0.50000  1.0000
  Mg  Mg99      1.0  0.06670  0.93300  0.50000  1.0000
  Mg  Mg100     1.0  0.79900  0.00043  0.66500  1.0000
  Mg  Mg101     1.0  0.20100  0.00043  0.66500  1.0000
  Mg  Mg102     1.0  0.20100  0.20100  0.66500  1.0000
  Mg  Mg103     1.0  0.00000  0.20100  0.66500  1.0000
  Mg  Mg104     1.0  0.79900  0.79900  0.66500  1.0000
  Mg  Mg105     1.0  0.00000  0.79900  0.66500  1.0000
  Mg  Mg106     1.0  0.20000  0.40000  0.66600  1.0000
  Mg  Mg107     1.0  0.20000  0.80000  0.66600  1.0000
  Mg  Mg108     1.0  0.60000  0.80000  0.66600  1.0000
  Mg  Mg109     1.0  0.00000  0.00000  0.66600  1.0000
  Mg  Mg110     1.0  0.60000  0.00019  0.66600  1.0000
  Mg  Mg111     1.0  0.40100  0.00019  0.66600  1.0000
  Mg  Mg112     1.0  0.40100  0.40000  0.66600  1.0000
  Mg  Mg113     1.0  0.00000  0.40000  0.66600  1.0000
  Mg  Mg114     1.0  0.60000  0.59900  0.66600  1.0000
  Mg  Mg115     1.0  0.00000  0.59900  0.66600  1.0000
  Mg  Mg116     1.0  0.20000  0.60000  0.66600  1.0000
  Mg  Mg117     1.0  0.40000  0.60000  0.66600  1.0000
  Mg  Mg118     1.0  0.40000  0.80000  0.66600  1.0000
  Mg  Mg119     1.0  0.60000  0.20000  0.66700  1.0000
  Mg  Mg120     1.0  0.80000  0.40000  0.66700  1.0000
  Mg  Mg121     1.0  0.60000  0.40000  0.66700  1.0000
  Mg  Mg122     1.0  0.80000  0.20000  0.66700  1.0000
  Mg  Mg123     1.0  0.40000  0.20000  0.66700  1.0000
  Mg  Mg124     1.0  0.80000  0.60000  0.66700  1.0000
  Mg  Mg125     1.0  0.06960  0.13900  0.82600  1.0000
  Mg  Mg126     1.0  0.86100  0.93000  0.82600  1.0000
  Mg  Mg127     1.0  0.06960  0.93000  0.82600  1.0000
  Mg  Mg128     1.0  0.26800  0.33600  0.83200  1.0000
  Mg  Mg129     1.0  0.06760  0.33600  0.83200  1.0000
  Mg  Mg130     1.0  0.66400  0.73200  0.83200  1.0000
  Mg  Mg131     1.0  0.06760  0.73200  0.83200  1.0000
  Mg  Mg132     1.0  0.26800  0.93200  0.83200  1.0000
  Mg  Mg133     1.0  0.66400  0.93200  0.83200  1.0000
  Mg  Mg134     1.0  0.06680  0.53300  0.83300  1.0000
  Mg  Mg135     1.0  0.46700  0.53300  0.83300  1.0000
  Mg  Mg136     1.0  0.46700  0.93300  0.83300  1.0000
  Mg  Mg137     1.0  0.26700  0.53400  0.83300  1.0000
  Mg  Mg138     1.0  0.46600  0.73300  0.83300  1.0000
  Mg  Mg139     1.0  0.26700  0.73300  0.83300  1.0000
  Mg  Mg140     1.0  0.46600  0.13300  0.83300  1.0000
  Mg  Mg141     1.0  0.66700  0.13300  0.83300  1.0000
  Mg  Mg142     1.0  0.86700  0.33300  0.83300  1.0000
  Mg  Mg143     1.0  0.46600  0.33300  0.83300  1.0000
  Mg  Mg144     1.0  0.66700  0.53400  0.83300  1.0000
  Mg  Mg145     1.0  0.86700  0.53400  0.83300  1.0000
  Mg  Mg146     1.0  0.66700  0.33300  0.83400  1.0000
  Mg  Mg147     1.0  0.86800  0.13200  0.83500  1.0000
  Mg  Mg148     1.0  0.26400  0.13200  0.83500  1.0000
  Mg  Mg149     1.0  0.86800  0.73600  0.83500  1.0000
