data_image0
_chemical_formula_structural       Li2O10V4
_chemical_formula_sum              "Li2 O10 V4"
_cell_length_a       11.3808
_cell_length_b       3.56825
_cell_length_c       4.53295
_cell_angle_alpha    90
_cell_angle_beta     90
_cell_angle_gamma    90

_space_group_name_H-M_alt    "P 1"
_space_group_IT_number       1

loop_
  _space_group_symop_operation_xyz
  'x, y, z'

loop_
  _atom_site_type_symbol
  _atom_site_label
  _atom_site_symmetry_multiplicity
  _atom_site_fract_x
  _atom_site_fract_y
  _atom_site_fract_z
  _atom_site_occupancy
  Li  Li1       1.0  0.25000  0.75000  0.29600  1.0000
  Li  Li2       1.0  0.75000  0.25000  0.70400  1.0000
  O   O1        1.0  0.25000  0.25000  0.02420  1.0000
  O   O2        1.0  0.07360  0.75000  0.03050  1.0000
  O   O3        1.0  0.42600  0.75000  0.03050  1.0000
  O   O4        1.0  0.61900  0.75000  0.47000  1.0000
  O   O5        1.0  0.88100  0.75000  0.47000  1.0000
  O   O6        1.0  0.11900  0.25000  0.53000  1.0000
  O   O7        1.0  0.38100  0.25000  0.53000  1.0000
  O   O8        1.0  0.57400  0.25000  0.96900  1.0000
  O   O9        1.0  0.92600  0.25000  0.96900  1.0000
  O   O10       1.0  0.75000  0.75000  0.97600  1.0000
  V   V1        1.0  0.59900  0.75000  0.11100  1.0000
  V   V2        1.0  0.90100  0.75000  0.11100  1.0000
  V   V3        1.0  0.09880  0.25000  0.88900  1.0000
  V   V4        1.0  0.40100  0.25000  0.88900  1.0000
