data_image0
_chemical_formula_structural       Mg5Tb
_chemical_formula_sum              "Mg5 Tb1"
_cell_length_a       5.16787
_cell_length_b       5.73699
_cell_length_c       5.73699
_cell_angle_alpha    60
_cell_angle_beta     90
_cell_angle_gamma    90

_space_group_name_H-M_alt    "P 1"
_space_group_IT_number       1

loop_
  _space_group_symop_operation_xyz
  'x, y, z'

loop_
  _atom_site_type_symbol
  _atom_site_label
  _atom_site_symmetry_multiplicity
  _atom_site_fract_x
  _atom_site_fract_y
  _atom_site_fract_z
  _atom_site_occupancy
  Mg  Mg1       1.0  0.00000  0.03450  0.96600  1.0000
  Mg  Mg2       1.0  0.50000  0.33300  0.00000  1.0000
  Mg  Mg3       1.0  0.00000  0.29900  0.33300  1.0000
  Mg  Mg4       1.0  0.50000  0.00000  0.66700  1.0000
  Mg  Mg5       1.0  0.00000  0.66700  0.70100  1.0000
  Tb  Tb1       1.0  0.50000  0.66700  0.33300  1.0000
