data_image0
_chemical_formula_structural       H10Pd2Rb6
_chemical_formula_sum              "H10 Pd2 Rb6"
_cell_length_a       7.63715
_cell_length_b       7.63715
_cell_length_c       5.98208
_cell_angle_alpha    90
_cell_angle_beta     90
_cell_angle_gamma    90

_space_group_name_H-M_alt    "P 1"
_space_group_IT_number       1

loop_
  _space_group_symop_operation_xyz
  'x, y, z'

loop_
  _atom_site_type_symbol
  _atom_site_label
  _atom_site_symmetry_multiplicity
  _atom_site_fract_x
  _atom_site_fract_y
  _atom_site_fract_z
  _atom_site_occupancy
  H   H1        1.0  0.38900  0.11100  0.19300  1.0000
  H   H2        1.0  0.88900  0.38900  0.19300  1.0000
  H   H3        1.0  0.11100  0.61100  0.19300  1.0000
  H   H4        1.0  0.61100  0.88900  0.19300  1.0000
  H   H5        1.0  0.00000  0.00000  0.50000  1.0000
  H   H6        1.0  0.50000  0.50000  0.50000  1.0000
  H   H7        1.0  0.38900  0.11100  0.80700  1.0000
  H   H8        1.0  0.88900  0.38900  0.80700  1.0000
  H   H9        1.0  0.11100  0.61100  0.80700  1.0000
  H   H10       1.0  0.61100  0.88900  0.80700  1.0000
  Pd  Pd1       1.0  0.50000  0.00000  0.00000  1.0000
  Pd  Pd2       1.0  0.00000  0.50000  0.00000  1.0000
  Rb  Rb1       1.0  0.00000  0.00000  0.00000  1.0000
  Rb  Rb2       1.0  0.50000  0.50000  0.00000  1.0000
  Rb  Rb3       1.0  0.68400  0.18400  0.50000  1.0000
  Rb  Rb4       1.0  0.18400  0.31600  0.50000  1.0000
  Rb  Rb5       1.0  0.81600  0.68400  0.50000  1.0000
  Rb  Rb6       1.0  0.31600  0.81600  0.50000  1.0000
