data_image0
_chemical_formula_structural       As2H4Mn2O10
_chemical_formula_sum              "As2 H4 Mn2 O10"
_cell_length_a       5.24664
_cell_length_b       5.24664
_cell_length_c       7.42745
_cell_angle_alpha    104.984
_cell_angle_beta     104.984
_cell_angle_gamma    96.7905

_space_group_name_H-M_alt    "P 1"
_space_group_IT_number       1

loop_
  _space_group_symop_operation_xyz
  'x, y, z'

loop_
  _atom_site_type_symbol
  _atom_site_label
  _atom_site_symmetry_multiplicity
  _atom_site_fract_x
  _atom_site_fract_y
  _atom_site_fract_z
  _atom_site_occupancy
  As  As1       1.0  0.57600  0.42400  0.25000  1.0000
  As  As2       1.0  0.42400  0.57600  0.75000  1.0000
  H   H1        1.0  0.11600  0.05250  0.19800  1.0000
  H   H2        1.0  0.94800  0.88400  0.30200  1.0000
  H   H3        1.0  0.05250  0.11600  0.69800  1.0000
  H   H4        1.0  0.88400  0.94800  0.80200  1.0000
  Mn  Mn1       1.0  1.00000  0.50000  0.00000  1.0000
  Mn  Mn2       1.0  0.50000  0.00000  0.50000  1.0000
  O   O1        1.0  0.71300  0.31800  0.06600  1.0000
  O   O2        1.0  0.23200  0.32400  0.15400  1.0000
  O   O3        1.0  0.10700  0.89300  0.25000  1.0000
  O   O4        1.0  0.67600  0.76800  0.34600  1.0000
  O   O5        1.0  0.68200  0.28700  0.43400  1.0000
  O   O6        1.0  0.31800  0.71300  0.56600  1.0000
  O   O7        1.0  0.32400  0.23200  0.65400  1.0000
  O   O8        1.0  0.89300  0.10700  0.75000  1.0000
  O   O9        1.0  0.76800  0.67600  0.84600  1.0000
  O   O10       1.0  0.28700  0.68200  0.93400  1.0000
