data_image0
_chemical_formula_structural       C4H4N8Ni2
_chemical_formula_sum              "C4 H4 N8 Ni2"
_cell_length_a       6.58162
_cell_length_b       7.9673
_cell_length_c       3.14007
_cell_angle_alpha    90
_cell_angle_beta     90
_cell_angle_gamma    90

_space_group_name_H-M_alt    "P 1"
_space_group_IT_number       1

loop_
  _space_group_symop_operation_xyz
  'x, y, z'

loop_
  _atom_site_type_symbol
  _atom_site_label
  _atom_site_symmetry_multiplicity
  _atom_site_fract_x
  _atom_site_fract_y
  _atom_site_fract_z
  _atom_site_occupancy
  C   C1        1.0  0.84700  0.37000  0.00000  1.0000
  C   C2        1.0  0.15300  0.63000  0.00000  1.0000
  C   C3        1.0  0.34700  0.13000  0.50000  1.0000
  C   C4        1.0  0.65300  0.87000  0.50000  1.0000
  H   H1        1.0  0.12800  0.31000  0.00000  1.0000
  H   H2        1.0  0.87200  0.69000  0.00000  1.0000
  H   H3        1.0  0.62800  0.19000  0.50000  1.0000
  H   H4        1.0  0.37200  0.81000  0.50000  1.0000
  N   N1        1.0  0.98400  0.26000  0.00000  1.0000
  N   N2        1.0  0.70300  0.46500  0.00000  1.0000
  N   N3        1.0  0.29700  0.53500  0.00000  1.0000
  N   N4        1.0  0.01580  0.74000  0.00000  1.0000
  N   N5        1.0  0.20300  0.03490  0.50000  1.0000
  N   N6        1.0  0.48400  0.24000  0.50000  1.0000
  N   N7        1.0  0.51600  0.76000  0.50000  1.0000
  N   N8        1.0  0.79700  0.96500  0.50000  1.0000
  Ni  Ni1       1.0  0.00000  0.00000  0.00000  1.0000
  Ni  Ni2       1.0  0.50000  0.50000  0.50000  1.0000
