data_image0
_chemical_formula_structural       Al2C2H4Na2O10
_chemical_formula_sum              "Al2 C2 H4 Na2 O10"
_cell_length_a       5.55475
_cell_length_b       6.61857
_cell_length_c       6.72264
_cell_angle_alpha    119.489
_cell_angle_beta     114.402
_cell_angle_gamma    90

_space_group_name_H-M_alt    "P 1"
_space_group_IT_number       1

loop_
  _space_group_symop_operation_xyz
  'x, y, z'

loop_
  _atom_site_type_symbol
  _atom_site_label
  _atom_site_symmetry_multiplicity
  _atom_site_fract_x
  _atom_site_fract_y
  _atom_site_fract_z
  _atom_site_occupancy
  Al  Al1       1.0  0.00000  0.50000  0.00000  1.0000
  Al  Al2       1.0  0.50000  0.50000  0.00000  1.0000
  C   C1        1.0  0.99800  0.24800  0.49600  1.0000
  C   C2        1.0  0.00208  0.75200  0.50400  1.0000
  H   H1        1.0  0.78200  0.22300  0.06370  1.0000
  H   H2        1.0  0.78200  0.84100  0.06370  1.0000
  H   H3        1.0  0.21800  0.15900  0.93600  1.0000
  H   H4        1.0  0.21800  0.77700  0.93600  1.0000
  Na  Na1       1.0  0.50000  0.00000  0.50000  1.0000
  Na  Na2       1.0  0.50000  0.50000  0.50000  1.0000
  O   O1        1.0  0.27500  0.33900  0.05090  1.0000
  O   O2        1.0  0.27500  0.71200  0.05090  1.0000
  O   O3        1.0  0.87500  0.12500  0.24900  1.0000
  O   O4        1.0  0.14300  0.68900  0.37700  1.0000
  O   O5        1.0  0.73500  0.68900  0.37700  1.0000
  O   O6        1.0  0.26500  0.31100  0.62300  1.0000
  O   O7        1.0  0.85700  0.31100  0.62300  1.0000
  O   O8        1.0  0.12500  0.87500  0.75100  1.0000
  O   O9        1.0  0.72500  0.28800  0.94900  1.0000
  O   O10       1.0  0.72500  0.66100  0.94900  1.0000
