data_image0
_chemical_formula_structural       C4H5Na3O8
_chemical_formula_sum              "C4 H5 Na3 O8"
_cell_length_a       3.36632
_cell_length_b       8.26773
_cell_length_c       8.26902
_cell_angle_alpha    114.285
_cell_angle_beta     93.9949
_cell_angle_gamma    80.6311

_space_group_name_H-M_alt    "P 1"
_space_group_IT_number       1

loop_
  _space_group_symop_operation_xyz
  'x, y, z'

loop_
  _atom_site_type_symbol
  _atom_site_label
  _atom_site_symmetry_multiplicity
  _atom_site_fract_x
  _atom_site_fract_y
  _atom_site_fract_z
  _atom_site_occupancy
  C   C1        1.0  0.60700  0.81600  0.22500  1.0000
  C   C2        1.0  0.89600  0.26600  0.37600  1.0000
  C   C3        1.0  0.10400  0.73400  0.62400  1.0000
  C   C4        1.0  0.39300  0.18400  0.77500  1.0000
  H   H1        1.0  0.55500  0.86700  0.37100  1.0000
  H   H2        1.0  0.09260  0.14800  0.38300  1.0000
  H   H3        1.0  0.50000  0.50000  0.50000  1.0000
  H   H4        1.0  0.90700  0.85200  0.61700  1.0000
  H   H5        1.0  0.44500  0.13300  0.62900  1.0000
  Na  Na1       1.0  0.00000  0.00000  0.00000  1.0000
  Na  Na2       1.0  0.28900  0.46000  0.16600  1.0000
  Na  Na3       1.0  0.71100  0.54000  0.83400  1.0000
  O   O1        1.0  0.71400  0.64900  0.14300  1.0000
  O   O2        1.0  0.55100  0.93000  0.15800  1.0000
  O   O3        1.0  0.88000  0.29000  0.23500  1.0000
  O   O4        1.0  0.30300  0.62900  0.48200  1.0000
  O   O5        1.0  0.69700  0.37100  0.51800  1.0000
  O   O6        1.0  0.12000  0.71000  0.76500  1.0000
  O   O7        1.0  0.44900  0.07000  0.84200  1.0000
  O   O8        1.0  0.28600  0.35100  0.85700  1.0000
