data_image0
_chemical_formula_structural       Au2In4Na2
_chemical_formula_sum              "Au2 In4 Na2"
_cell_length_a       4.53446
_cell_length_b       5.72361
_cell_length_c       7.99967
_cell_angle_alpha    90
_cell_angle_beta     90
_cell_angle_gamma    66.6642

_space_group_name_H-M_alt    "P 1"
_space_group_IT_number       1

loop_
  _space_group_symop_operation_xyz
  'x, y, z'

loop_
  _atom_site_type_symbol
  _atom_site_label
  _atom_site_symmetry_multiplicity
  _atom_site_fract_x
  _atom_site_fract_y
  _atom_site_fract_z
  _atom_site_occupancy
  Au  Au1       1.0  0.71600  0.56800  0.25000  1.0000
  Au  Au2       1.0  0.28400  0.43200  0.75000  1.0000
  In  In1       1.0  0.13900  0.72300  0.05200  1.0000
  In  In2       1.0  0.13900  0.72300  0.44800  1.0000
  In  In3       1.0  0.86100  0.27700  0.55200  1.0000
  In  In4       1.0  0.86100  0.27700  0.94800  1.0000
  Na  Na1       1.0  0.43000  0.14100  0.25000  1.0000
  Na  Na2       1.0  0.57000  0.85900  0.75000  1.0000
