data_image0
_chemical_formula_structural       C2Os
_chemical_formula_sum              "C2 Os1"
_cell_length_a       2.86795
_cell_length_b       2.86797
_cell_length_c       4.01255
_cell_angle_alpha    90
_cell_angle_beta     90
_cell_angle_gamma    120

_space_group_name_H-M_alt    "P 1"
_space_group_IT_number       1

loop_
  _space_group_symop_operation_xyz
  'x, y, z'

loop_
  _atom_site_type_symbol
  _atom_site_label
  _atom_site_symmetry_multiplicity
  _atom_site_fract_x
  _atom_site_fract_y
  _atom_site_fract_z
  _atom_site_occupancy
  C   C1        1.0  0.00000  0.00000  0.18000  1.0000
  C   C2        1.0  0.00000  0.00000  0.82000  1.0000
  Os  Os1       1.0  0.66700  0.33300  0.50000  1.0000
