data_image0
_chemical_formula_structural       C3H3O6Y
_chemical_formula_sum              "C3 H3 O6 Y1"
_cell_length_a       3.91329
_cell_length_b       6.1065
_cell_length_c       6.1065
_cell_angle_alpha    115.566
_cell_angle_beta     102.334
_cell_angle_gamma    102.334

_space_group_name_H-M_alt    "P 1"
_space_group_IT_number       1

loop_
  _space_group_symop_operation_xyz
  'x, y, z'

loop_
  _atom_site_type_symbol
  _atom_site_label
  _atom_site_symmetry_multiplicity
  _atom_site_fract_x
  _atom_site_fract_y
  _atom_site_fract_z
  _atom_site_occupancy
  C   C1        1.0  0.61100  0.46200  0.00000  1.0000
  C   C2        1.0  0.61100  0.00000  0.46200  1.0000
  C   C3        1.0  0.14900  0.53800  0.53800  1.0000
  H   H1        1.0  0.36100  0.51800  0.00000  1.0000
  H   H2        1.0  0.84300  0.48200  0.48200  1.0000
  H   H3        1.0  0.36100  0.00000  0.51800  1.0000
  O   O1        1.0  0.89500  0.60600  0.00000  1.0000
  O   O2        1.0  0.59200  0.25000  0.00000  1.0000
  O   O3        1.0  0.59200  0.00000  0.25000  1.0000
  O   O4        1.0  0.28900  0.39400  0.39400  1.0000
  O   O5        1.0  0.89500  0.00000  0.60600  1.0000
  O   O6        1.0  0.34200  0.75000  0.75000  1.0000
  Y   Y1        1.0  0.00347  0.00000  0.00000  1.0000
