data_image0
_chemical_formula_structural       C8H4O8
_chemical_formula_sum              "C8 H4 O8"
_cell_length_a       6.01348
_cell_length_b       5.01311
_cell_length_c       6.02284
_cell_angle_alpha    90
_cell_angle_beta     89.9666
_cell_angle_gamma    90

_space_group_name_H-M_alt    "P 1"
_space_group_IT_number       1

loop_
  _space_group_symop_operation_xyz
  'x, y, z'

loop_
  _atom_site_type_symbol
  _atom_site_label
  _atom_site_symmetry_multiplicity
  _atom_site_fract_x
  _atom_site_fract_y
  _atom_site_fract_z
  _atom_site_occupancy
  C   C1        1.0  0.19900  0.25000  0.09580  1.0000
  C   C2        1.0  0.42200  0.25000  0.19000  1.0000
  C   C3        1.0  0.10300  0.25000  0.31400  1.0000
  C   C4        1.0  0.32300  0.25000  0.41400  1.0000
  C   C5        1.0  0.67700  0.75000  0.58600  1.0000
  C   C6        1.0  0.89700  0.75000  0.68600  1.0000
  C   C7        1.0  0.57800  0.75000  0.81000  1.0000
  C   C8        1.0  0.80100  0.75000  0.90400  1.0000
  H   H1        1.0  0.75900  0.75000  0.23000  1.0000
  H   H2        1.0  0.77600  0.25000  0.26700  1.0000
  H   H3        1.0  0.22400  0.75000  0.73300  1.0000
  H   H4        1.0  0.24100  0.25000  0.77000  1.0000
  O   O1        1.0  0.88700  0.75000  0.09910  1.0000
  O   O2        1.0  0.61500  0.25000  0.11100  1.0000
  O   O3        1.0  0.60200  0.75000  0.39200  1.0000
  O   O4        1.0  0.90600  0.25000  0.39600  1.0000
  O   O5        1.0  0.09350  0.75000  0.60400  1.0000
  O   O6        1.0  0.39800  0.25000  0.60800  1.0000
  O   O7        1.0  0.38500  0.75000  0.88900  1.0000
  O   O8        1.0  0.11300  0.25000  0.90100  1.0000
