data_image0
_chemical_formula_structural       Dy8Li8Sn8
_chemical_formula_sum              "Dy8 Li8 Sn8"
_cell_length_a       9.33106
_cell_length_b       9.331
_cell_length_c       7.30408
_cell_angle_alpha    90
_cell_angle_beta     90
_cell_angle_gamma    120

_space_group_name_H-M_alt    "P 1"
_space_group_IT_number       1

loop_
  _space_group_symop_operation_xyz
  'x, y, z'

loop_
  _atom_site_type_symbol
  _atom_site_label
  _atom_site_symmetry_multiplicity
  _atom_site_fract_x
  _atom_site_fract_y
  _atom_site_fract_z
  _atom_site_occupancy
  Dy  Dy1       1.0  0.00000  0.00000  0.00098  1.0000
  Dy  Dy2       1.0  0.51200  0.02430  0.00598  1.0000
  Dy  Dy3       1.0  0.51200  0.48800  0.00598  1.0000
  Dy  Dy4       1.0  0.97600  0.48800  0.00598  1.0000
  Dy  Dy5       1.0  0.00000  0.00000  0.50100  1.0000
  Dy  Dy6       1.0  0.02430  0.51200  0.50600  1.0000
  Dy  Dy7       1.0  0.48800  0.51200  0.50600  1.0000
  Dy  Dy8       1.0  0.48800  0.97600  0.50600  1.0000
  Li  Li1       1.0  0.16700  0.33400  0.21100  1.0000
  Li  Li2       1.0  0.16700  0.83300  0.21100  1.0000
  Li  Li3       1.0  0.66600  0.83300  0.21100  1.0000
  Li  Li4       1.0  0.66700  0.33300  0.32900  1.0000
  Li  Li5       1.0  0.83300  0.66600  0.71100  1.0000
  Li  Li6       1.0  0.33400  0.16700  0.71100  1.0000
  Li  Li7       1.0  0.83300  0.16700  0.71100  1.0000
  Li  Li8       1.0  0.33300  0.66700  0.82900  1.0000
  Sn  Sn1       1.0  0.33300  0.66700  0.23800  1.0000
  Sn  Sn2       1.0  0.33400  0.16700  0.27000  1.0000
  Sn  Sn3       1.0  0.83300  0.16700  0.27000  1.0000
  Sn  Sn4       1.0  0.83300  0.66600  0.27000  1.0000
  Sn  Sn5       1.0  0.66700  0.33300  0.73800  1.0000
  Sn  Sn6       1.0  0.16700  0.83300  0.77000  1.0000
  Sn  Sn7       1.0  0.66600  0.83300  0.77000  1.0000
  Sn  Sn8       1.0  0.16700  0.33400  0.77000  1.0000
