data_image0
_chemical_formula_structural       In2Pu4Rh4
_chemical_formula_sum              "In2 Pu4 Rh4"
_cell_length_a       7.53251
_cell_length_b       7.53251
_cell_length_c       3.75073
_cell_angle_alpha    90
_cell_angle_beta     90
_cell_angle_gamma    90

_space_group_name_H-M_alt    "P 1"
_space_group_IT_number       1

loop_
  _space_group_symop_operation_xyz
  'x, y, z'

loop_
  _atom_site_type_symbol
  _atom_site_label
  _atom_site_symmetry_multiplicity
  _atom_site_fract_x
  _atom_site_fract_y
  _atom_site_fract_z
  _atom_site_occupancy
  In  In1       1.0  0.00000  0.00000  0.00000  1.0000
  In  In2       1.0  0.50000  0.50000  0.00000  1.0000
  Pu  Pu1       1.0  0.33300  0.16700  0.50000  1.0000
  Pu  Pu2       1.0  0.83300  0.33300  0.50000  1.0000
  Pu  Pu3       1.0  0.16700  0.66700  0.50000  1.0000
  Pu  Pu4       1.0  0.66700  0.83300  0.50000  1.0000
  Rh  Rh1       1.0  0.63700  0.13700  0.00000  1.0000
  Rh  Rh2       1.0  0.13700  0.36300  0.00000  1.0000
  Rh  Rh3       1.0  0.86300  0.63700  0.00000  1.0000
  Rh  Rh4       1.0  0.36300  0.86300  0.00000  1.0000
