data_image0
_chemical_formula_structural       In2Pd4Pu4
_chemical_formula_sum              "In2 Pd4 Pu4"
_cell_length_a       7.6612
_cell_length_b       7.6612
_cell_length_c       3.8308
_cell_angle_alpha    90
_cell_angle_beta     90
_cell_angle_gamma    90

_space_group_name_H-M_alt    "P 1"
_space_group_IT_number       1

loop_
  _space_group_symop_operation_xyz
  'x, y, z'

loop_
  _atom_site_type_symbol
  _atom_site_label
  _atom_site_symmetry_multiplicity
  _atom_site_fract_x
  _atom_site_fract_y
  _atom_site_fract_z
  _atom_site_occupancy
  In  In1       1.0  0.00000  0.00000  0.00000  1.0000
  In  In2       1.0  0.50000  0.50000  0.00000  1.0000
  Pd  Pd1       1.0  0.63000  0.13000  0.00000  1.0000
  Pd  Pd2       1.0  0.13000  0.37000  0.00000  1.0000
  Pd  Pd3       1.0  0.87000  0.63000  0.00000  1.0000
  Pd  Pd4       1.0  0.37000  0.87000  0.00000  1.0000
  Pu  Pu1       1.0  0.32700  0.17300  0.50000  1.0000
  Pu  Pu2       1.0  0.82700  0.32700  0.50000  1.0000
  Pu  Pu3       1.0  0.17300  0.67300  0.50000  1.0000
  Pu  Pu4       1.0  0.67300  0.82700  0.50000  1.0000
