data_image0
_chemical_formula_structural       InMo2O8Rb
_chemical_formula_sum              "In1 Mo2 O8 Rb1"
_cell_length_a       5.81646
_cell_length_b       5.81665
_cell_length_c       7.52195
_cell_angle_alpha    90
_cell_angle_beta     89.9995
_cell_angle_gamma    120.001

_space_group_name_H-M_alt    "P 1"
_space_group_IT_number       1

loop_
  _space_group_symop_operation_xyz
  'x, y, z'

loop_
  _atom_site_type_symbol
  _atom_site_label
  _atom_site_symmetry_multiplicity
  _atom_site_fract_x
  _atom_site_fract_y
  _atom_site_fract_z
  _atom_site_occupancy
  In  In1       1.0  0.00000  0.00000  0.00000  1.0000
  Mo  Mo1       1.0  0.33300  0.66700  0.25300  1.0000
  Mo  Mo2       1.0  0.66700  0.33300  0.74700  1.0000
  O   O1        1.0  0.67000  0.83500  0.17700  1.0000
  O   O2        1.0  0.16500  0.33000  0.17700  1.0000
  O   O3        1.0  0.16500  0.83500  0.17700  1.0000
  O   O4        1.0  0.33300  0.66700  0.48500  1.0000
  O   O5        1.0  0.66700  0.33300  0.51500  1.0000
  O   O6        1.0  0.83500  0.16500  0.82300  1.0000
  O   O7        1.0  0.83500  0.67000  0.82300  1.0000
  O   O8        1.0  0.33000  0.16500  0.82300  1.0000
  Rb  Rb1       1.0  0.00000  0.00000  0.50000  1.0000
