data_image0
_chemical_formula_structural       Se8Th4
_chemical_formula_sum              "Se8 Th4"
_cell_length_a       4.43492
_cell_length_b       7.64202
_cell_length_c       9.13301
_cell_angle_alpha    90
_cell_angle_beta     90
_cell_angle_gamma    90

_space_group_name_H-M_alt    "P 1"
_space_group_IT_number       1

loop_
  _space_group_symop_operation_xyz
  'x, y, z'

loop_
  _atom_site_type_symbol
  _atom_site_label
  _atom_site_symmetry_multiplicity
  _atom_site_fract_x
  _atom_site_fract_y
  _atom_site_fract_z
  _atom_site_occupancy
  Se  Se1       1.0  0.25000  0.86000  0.07000  1.0000
  Se  Se2       1.0  0.75000  0.52900  0.16400  1.0000
  Se  Se3       1.0  0.75000  0.02850  0.33600  1.0000
  Se  Se4       1.0  0.25000  0.36000  0.43000  1.0000
  Se  Se5       1.0  0.75000  0.64000  0.57000  1.0000
  Se  Se6       1.0  0.25000  0.97100  0.66400  1.0000
  Se  Se7       1.0  0.25000  0.47100  0.83600  1.0000
  Se  Se8       1.0  0.75000  0.14000  0.93000  1.0000
  Th  Th1       1.0  0.25000  0.24800  0.12200  1.0000
  Th  Th2       1.0  0.25000  0.74800  0.37800  1.0000
  Th  Th3       1.0  0.75000  0.25200  0.62200  1.0000
  Th  Th4       1.0  0.75000  0.75200  0.87800  1.0000
