data_image0
_chemical_formula_structural       Nb2O8Sm2
_chemical_formula_sum              "Nb2 O8 Sm2"
_cell_length_a       5.13506
_cell_length_b       5.41276
_cell_length_c       6.63742
_cell_angle_alpha    112.084
_cell_angle_beta     110.691
_cell_angle_gamma    94.7132

_space_group_name_H-M_alt    "P 1"
_space_group_IT_number       1

loop_
  _space_group_symop_operation_xyz
  'x, y, z'

loop_
  _atom_site_type_symbol
  _atom_site_label
  _atom_site_symmetry_multiplicity
  _atom_site_fract_x
  _atom_site_fract_y
  _atom_site_fract_z
  _atom_site_occupancy
  Nb  Nb1       1.0  0.14600  0.89600  0.29200  1.0000
  Nb  Nb2       1.0  0.85400  0.10400  0.70800  1.0000
  O   O1        1.0  0.79400  0.63600  0.08130  1.0000
  O   O2        1.0  0.28700  0.94500  0.08130  1.0000
  O   O3        1.0  0.00967  0.21300  0.43700  1.0000
  O   O4        1.0  0.42700  0.72400  0.43700  1.0000
  O   O5        1.0  0.57300  0.27600  0.56300  1.0000
  O   O6        1.0  0.99000  0.78700  0.56300  1.0000
  O   O7        1.0  0.71300  0.05480  0.91900  1.0000
  O   O8        1.0  0.20600  0.36400  0.91900  1.0000
  Sm  Sm1       1.0  0.62100  0.37100  0.24100  1.0000
  Sm  Sm2       1.0  0.37900  0.62900  0.75900  1.0000
