data_image0
_chemical_formula_structural       P6Sr6
_chemical_formula_sum              "P6 Sr6"
_cell_length_a       8.08236
_cell_length_b       8.08235
_cell_length_c       6.03708
_cell_angle_alpha    90
_cell_angle_beta     90
_cell_angle_gamma    119.999

_space_group_name_H-M_alt    "P 1"
_space_group_IT_number       1

loop_
  _space_group_symop_operation_xyz
  'x, y, z'

loop_
  _atom_site_type_symbol
  _atom_site_label
  _atom_site_symmetry_multiplicity
  _atom_site_fract_x
  _atom_site_fract_y
  _atom_site_fract_z
  _atom_site_occupancy
  P   P1        1.0  0.66700  0.33300  0.19200  1.0000
  P   P2        1.0  0.33300  0.66700  0.19200  1.0000
  P   P3        1.0  0.00002  0.00002  0.31300  1.0000
  P   P4        1.0  0.00002  0.00002  0.68700  1.0000
  P   P5        1.0  0.66700  0.33300  0.80800  1.0000
  P   P6        1.0  0.33300  0.66700  0.80800  1.0000
  Sr  Sr1       1.0  0.30600  0.00002  0.00000  1.0000
  Sr  Sr2       1.0  0.00002  0.30600  0.00000  1.0000
  Sr  Sr3       1.0  0.69400  0.69400  0.00000  1.0000
  Sr  Sr4       1.0  0.64100  0.00002  0.50000  1.0000
  Sr  Sr5       1.0  0.35900  0.35900  0.50000  1.0000
  Sr  Sr6       1.0  0.00002  0.64100  0.50000  1.0000
