data_image0
_chemical_formula_structural       C2Y
_chemical_formula_sum              "C2 Y1"
_cell_length_a       3.67659
_cell_length_b       3.67659
_cell_length_c       4.04337
_cell_angle_alpha    117.042
_cell_angle_beta     117.042
_cell_angle_gamma    90

_space_group_name_H-M_alt    "P 1"
_space_group_IT_number       1

loop_
  _space_group_symop_operation_xyz
  'x, y, z'

loop_
  _atom_site_type_symbol
  _atom_site_label
  _atom_site_symmetry_multiplicity
  _atom_site_fract_x
  _atom_site_fract_y
  _atom_site_fract_z
  _atom_site_occupancy
  C   C1        1.0  0.60500  0.60500  0.21000  1.0000
  C   C2        1.0  0.39500  0.39500  0.79000  1.0000
  Y   Y1        1.0  0.00000  0.00000  0.00000  1.0000
