data_image0
_chemical_formula_structural       Cs4O6Zr2
_chemical_formula_sum              "Cs4 O6 Zr2"
_cell_length_a       5.96099
_cell_length_b       6.81195
_cell_length_c       6.81195
_cell_angle_alpha    68.897
_cell_angle_beta     90
_cell_angle_gamma    90

_space_group_name_H-M_alt    "P 1"
_space_group_IT_number       1

loop_
  _space_group_symop_operation_xyz
  'x, y, z'

loop_
  _atom_site_type_symbol
  _atom_site_label
  _atom_site_symmetry_multiplicity
  _atom_site_fract_x
  _atom_site_fract_y
  _atom_site_fract_z
  _atom_site_occupancy
  Cs  Cs1       1.0  0.25000  0.48200  0.19200  1.0000
  Cs  Cs2       1.0  0.75000  0.19200  0.48200  1.0000
  Cs  Cs3       1.0  0.25000  0.80800  0.51800  1.0000
  Cs  Cs4       1.0  0.75000  0.51800  0.80800  1.0000
  O   O1        1.0  0.00000  0.12100  0.12100  1.0000
  O   O2        1.0  0.50000  0.12100  0.12100  1.0000
  O   O3        1.0  0.75000  0.66400  0.33600  1.0000
  O   O4        1.0  0.25000  0.33600  0.66400  1.0000
  O   O5        1.0  0.00000  0.87900  0.87900  1.0000
  O   O6        1.0  0.50000  0.87900  0.87900  1.0000
  Zr  Zr1       1.0  0.75000  0.91600  0.08440  1.0000
  Zr  Zr2       1.0  0.25000  0.08440  0.91600  1.0000
