data_image0
_chemical_formula_structural       Ga2Gd2
_chemical_formula_sum              "Ga2 Gd2"
_cell_length_a       4.09237
_cell_length_b       4.37014
_cell_length_c       5.94249
_cell_angle_alpha    68.426
_cell_angle_beta     90
_cell_angle_gamma    90

_space_group_name_H-M_alt    "P 1"
_space_group_IT_number       1

loop_
  _space_group_symop_operation_xyz
  'x, y, z'

loop_
  _atom_site_type_symbol
  _atom_site_label
  _atom_site_symmetry_multiplicity
  _atom_site_fract_x
  _atom_site_fract_y
  _atom_site_fract_z
  _atom_site_occupancy
  Ga  Ga1       1.0  0.75000  0.42600  0.14900  1.0000
  Ga  Ga2       1.0  0.25000  0.57400  0.85100  1.0000
  Gd  Gd1       1.0  0.25000  0.86000  0.28000  1.0000
  Gd  Gd2       1.0  0.75000  0.14000  0.72000  1.0000
