data_image0
_chemical_formula_structural       Al8Ce2Ni2
_chemical_formula_sum              "Al8 Ce2 Ni2"
_cell_length_a       4.14886
_cell_length_b       6.67045
_cell_length_c       8.22895
_cell_angle_alpha    90
_cell_angle_beta     75.3988
_cell_angle_gamma    90

_space_group_name_H-M_alt    "P 1"
_space_group_IT_number       1

loop_
  _space_group_symop_operation_xyz
  'x, y, z'

loop_
  _atom_site_type_symbol
  _atom_site_label
  _atom_site_symmetry_multiplicity
  _atom_site_fract_x
  _atom_site_fract_y
  _atom_site_fract_z
  _atom_site_occupancy
  Al  Al1       1.0  0.50000  0.00000  0.00000  1.0000
  Al  Al2       1.0  0.50000  0.50000  0.00000  1.0000
  Al  Al3       1.0  0.92000  0.75000  0.16000  1.0000
  Al  Al4       1.0  0.30800  0.55400  0.38400  1.0000
  Al  Al5       1.0  0.30800  0.94600  0.38400  1.0000
  Al  Al6       1.0  0.69200  0.05430  0.61600  1.0000
  Al  Al7       1.0  0.69200  0.44600  0.61600  1.0000
  Al  Al8       1.0  0.07980  0.25000  0.84000  1.0000
  Ce  Ce1       1.0  0.88700  0.25000  0.22700  1.0000
  Ce  Ce2       1.0  0.11300  0.75000  0.77300  1.0000
  Ni  Ni1       1.0  0.77500  0.75000  0.45000  1.0000
  Ni  Ni2       1.0  0.22500  0.25000  0.55000  1.0000
