data_image0
_chemical_formula_structural       Ca2In8Ni2
_chemical_formula_sum              "Ca2 In8 Ni2"
_cell_length_a       4.44234
_cell_length_b       7.38392
_cell_length_c       8.69295
_cell_angle_alpha    90
_cell_angle_beta     75.196
_cell_angle_gamma    90

_space_group_name_H-M_alt    "P 1"
_space_group_IT_number       1

loop_
  _space_group_symop_operation_xyz
  'x, y, z'

loop_
  _atom_site_type_symbol
  _atom_site_label
  _atom_site_symmetry_multiplicity
  _atom_site_fract_x
  _atom_site_fract_y
  _atom_site_fract_z
  _atom_site_occupancy
  Ca  Ca1       1.0  0.87600  0.25000  0.24800  1.0000
  Ca  Ca2       1.0  0.12400  0.75000  0.75200  1.0000
  In  In1       1.0  0.50000  0.00000  0.00000  1.0000
  In  In2       1.0  0.50000  0.50000  0.00000  1.0000
  In  In3       1.0  0.92800  0.75000  0.14500  1.0000
  In  In4       1.0  0.31200  0.54700  0.37600  1.0000
  In  In5       1.0  0.31200  0.95300  0.37600  1.0000
  In  In6       1.0  0.68800  0.04720  0.62400  1.0000
  In  In7       1.0  0.68800  0.45300  0.62400  1.0000
  In  In8       1.0  0.07240  0.25000  0.85500  1.0000
  Ni  Ni1       1.0  0.77400  0.75000  0.45300  1.0000
  Ni  Ni2       1.0  0.22600  0.25000  0.54700  1.0000
