data_image0
_chemical_formula_structural       Nd2NiO4
_chemical_formula_sum              "Nd2 Ni1 O4"
_cell_length_a       3.81216
_cell_length_b       3.81216
_cell_length_c       6.70161
_cell_angle_alpha    106.524
_cell_angle_beta     106.524
_cell_angle_gamma    90

_space_group_name_H-M_alt    "P 1"
_space_group_IT_number       1

loop_
  _space_group_symop_operation_xyz
  'x, y, z'

loop_
  _atom_site_type_symbol
  _atom_site_label
  _atom_site_symmetry_multiplicity
  _atom_site_fract_x
  _atom_site_fract_y
  _atom_site_fract_z
  _atom_site_occupancy
  Nd  Nd1       1.0  0.63600  0.63600  0.27200  1.0000
  Nd  Nd2       1.0  0.36400  0.36400  0.72800  1.0000
  Ni  Ni1       1.0  0.00000  0.00000  0.00000  1.0000
  O   O1        1.0  0.50000  0.00000  0.00000  1.0000
  O   O2        1.0  0.00000  0.50000  0.00000  1.0000
  O   O3        1.0  0.17800  0.17800  0.35500  1.0000
  O   O4        1.0  0.82200  0.82200  0.64500  1.0000
