data_image0
_chemical_formula_structural       Mn4O8Zn2
_chemical_formula_sum              "Mn4 O8 Zn2"
_cell_length_a       5.75576
_cell_length_b       5.75576
_cell_length_c       6.14988
_cell_angle_alpha    117.902
_cell_angle_beta     117.902
_cell_angle_gamma    90

_space_group_name_H-M_alt    "P 1"
_space_group_IT_number       1

loop_
  _space_group_symop_operation_xyz
  'x, y, z'

loop_
  _atom_site_type_symbol
  _atom_site_label
  _atom_site_symmetry_multiplicity
  _atom_site_fract_x
  _atom_site_fract_y
  _atom_site_fract_z
  _atom_site_occupancy
  Mn  Mn1       1.0  0.62500  0.37500  0.25000  1.0000
  Mn  Mn2       1.0  0.62500  0.87500  0.25000  1.0000
  Mn  Mn3       1.0  0.12500  0.37500  0.75000  1.0000
  Mn  Mn4       1.0  0.62500  0.37500  0.75000  1.0000
  O   O1        1.0  0.39100  0.61900  0.23700  1.0000
  O   O2        1.0  0.84600  0.61900  0.23700  1.0000
  O   O3        1.0  0.40400  0.13100  0.26300  1.0000
  O   O4        1.0  0.85900  0.13100  0.26300  1.0000
  O   O5        1.0  0.86900  0.14100  0.73700  1.0000
  O   O6        1.0  0.86900  0.59600  0.73700  1.0000
  O   O7        1.0  0.38100  0.15400  0.76300  1.0000
  O   O8        1.0  0.38100  0.60900  0.76300  1.0000
  Zn  Zn1       1.0  0.00000  0.00000  0.00000  1.0000
  Zn  Zn2       1.0  0.25000  0.75000  0.50000  1.0000
