data_image0
_chemical_formula_structural       Ga6Pd4U2
_chemical_formula_sum              "Ga6 Pd4 U2"
_cell_length_a       5.34472
_cell_length_b       5.34436
_cell_length_c       8.59773
_cell_angle_alpha    90
_cell_angle_beta     90
_cell_angle_gamma    120.002

_space_group_name_H-M_alt    "P 1"
_space_group_IT_number       1

loop_
  _space_group_symop_operation_xyz
  'x, y, z'

loop_
  _atom_site_type_symbol
  _atom_site_label
  _atom_site_symmetry_multiplicity
  _atom_site_fract_x
  _atom_site_fract_y
  _atom_site_fract_z
  _atom_site_occupancy
  Ga  Ga1       1.0  0.50000  0.00000  0.25000  1.0000
  Ga  Ga2       1.0  0.00010  0.50000  0.25000  1.0000
  Ga  Ga3       1.0  0.50000  0.50000  0.25000  1.0000
  Ga  Ga4       1.0  0.50000  0.00011  0.75000  1.0000
  Ga  Ga5       1.0  0.00000  0.50000  0.75000  1.0000
  Ga  Ga6       1.0  0.50000  0.50000  0.75000  1.0000
  Pd  Pd1       1.0  0.66700  0.33300  0.00000  1.0000
  Pd  Pd2       1.0  0.33300  0.66700  0.00030  1.0000
  Pd  Pd3       1.0  0.33300  0.66700  0.50000  1.0000
  Pd  Pd4       1.0  0.66700  0.33300  0.50000  1.0000
  U   U1        1.0  0.00000  0.00000  0.00000  1.0000
  U   U2        1.0  0.00000  0.00000  0.50000  1.0000
