data_image0
_chemical_formula_structural       Al2C4Ta6
_chemical_formula_sum              "Al2 C4 Ta6"
_cell_length_a       3.10282
_cell_length_b       3.10281
_cell_length_c       19.2523
_cell_angle_alpha    90
_cell_angle_beta     90
_cell_angle_gamma    120

_space_group_name_H-M_alt    "P 1"
_space_group_IT_number       1

loop_
  _space_group_symop_operation_xyz
  'x, y, z'

loop_
  _atom_site_type_symbol
  _atom_site_label
  _atom_site_symmetry_multiplicity
  _atom_site_fract_x
  _atom_site_fract_y
  _atom_site_fract_z
  _atom_site_occupancy
  Al  Al1       1.0  0.00000  0.00000  0.25000  1.0000
  Al  Al2       1.0  0.00000  0.00000  0.75000  1.0000
  C   C1        1.0  0.66700  0.33300  0.06830  1.0000
  C   C2        1.0  0.66700  0.33300  0.43200  1.0000
  C   C3        1.0  0.33300  0.66700  0.56800  1.0000
  C   C4        1.0  0.33300  0.66700  0.93200  1.0000
  Ta  Ta1       1.0  0.00000  0.00000  0.00000  1.0000
  Ta  Ta2       1.0  0.33300  0.66700  0.13400  1.0000
  Ta  Ta3       1.0  0.33300  0.66700  0.36600  1.0000
  Ta  Ta4       1.0  0.00000  0.00000  0.50000  1.0000
  Ta  Ta5       1.0  0.66700  0.33300  0.63400  1.0000
  Ta  Ta6       1.0  0.66700  0.33300  0.86600  1.0000
