data_image0
_chemical_formula_structural       Cs2Hg2Se6Sm2
_chemical_formula_sum              "Cs2 Hg2 Se6 Sm2"
_cell_length_a       4.33709
_cell_length_b       8.31548
_cell_length_c       11.2822
_cell_angle_alpha    90
_cell_angle_beta     90
_cell_angle_gamma    74.8834

_space_group_name_H-M_alt    "P 1"
_space_group_IT_number       1

loop_
  _space_group_symop_operation_xyz
  'x, y, z'

loop_
  _atom_site_type_symbol
  _atom_site_label
  _atom_site_symmetry_multiplicity
  _atom_site_fract_x
  _atom_site_fract_y
  _atom_site_fract_z
  _atom_site_occupancy
  Cs  Cs1       1.0  0.74300  0.51400  0.25000  1.0000
  Cs  Cs2       1.0  0.25700  0.48600  0.75000  1.0000
  Hg  Hg1       1.0  0.45500  0.09070  0.25000  1.0000
  Hg  Hg2       1.0  0.54500  0.90900  0.75000  1.0000
  Se  Se1       1.0  0.37700  0.24700  0.04500  1.0000
  Se  Se2       1.0  0.06140  0.87700  0.25000  1.0000
  Se  Se3       1.0  0.37700  0.24700  0.45500  1.0000
  Se  Se4       1.0  0.62300  0.75300  0.54500  1.0000
  Se  Se5       1.0  0.93900  0.12300  0.75000  1.0000
  Se  Se6       1.0  0.62300  0.75300  0.95500  1.0000
  Sm  Sm1       1.0  0.00000  0.00000  0.00000  1.0000
  Sm  Sm2       1.0  0.00000  0.00000  0.50000  1.0000
