data_image0
_chemical_formula_structural       Cr4Hg2O8
_chemical_formula_sum              "Cr4 Hg2 O8"
_cell_length_a       6.18225
_cell_length_b       6.18225
_cell_length_c       6.18225
_cell_angle_alpha    120
_cell_angle_beta     90
_cell_angle_gamma    120

_space_group_name_H-M_alt    "P 1"
_space_group_IT_number       1

loop_
  _space_group_symop_operation_xyz
  'x, y, z'

loop_
  _atom_site_type_symbol
  _atom_site_label
  _atom_site_symmetry_multiplicity
  _atom_site_fract_x
  _atom_site_fract_y
  _atom_site_fract_z
  _atom_site_occupancy
  Cr  Cr1       1.0  0.00000  0.00000  0.00000  1.0000
  Cr  Cr2       1.0  0.00000  0.00000  0.50000  1.0000
  Cr  Cr3       1.0  0.00000  0.50000  0.50000  1.0000
  Cr  Cr4       1.0  0.50000  0.50000  0.50000  1.0000
  Hg  Hg1       1.0  0.37500  0.75000  0.12500  1.0000
  Hg  Hg2       1.0  0.62500  0.25000  0.87500  1.0000
  O   O1        1.0  0.23000  0.04070  0.27000  1.0000
  O   O2        1.0  0.23000  0.45900  0.27000  1.0000
  O   O3        1.0  0.81100  0.04070  0.27000  1.0000
  O   O4        1.0  0.77000  0.54100  0.31100  1.0000
  O   O5        1.0  0.23000  0.45900  0.68900  1.0000
  O   O6        1.0  0.77000  0.54100  0.73000  1.0000
  O   O7        1.0  0.77000  0.95900  0.73000  1.0000
  O   O8        1.0  0.18900  0.95900  0.73000  1.0000
