data_image0
_chemical_formula_structural       Cd2Se8Tm4
_chemical_formula_sum              "Cd2 Se8 Tm4"
_cell_length_a       8.25308
_cell_length_b       8.25308
_cell_length_c       8.25308
_cell_angle_alpha    120
_cell_angle_beta     90
_cell_angle_gamma    120

_space_group_name_H-M_alt    "P 1"
_space_group_IT_number       1

loop_
  _space_group_symop_operation_xyz
  'x, y, z'

loop_
  _atom_site_type_symbol
  _atom_site_label
  _atom_site_symmetry_multiplicity
  _atom_site_fract_x
  _atom_site_fract_y
  _atom_site_fract_z
  _atom_site_occupancy
  Cd  Cd1       1.0  0.00000  0.00000  0.00000  1.0000
  Cd  Cd2       1.0  0.75000  0.50000  0.25000  1.0000
  Se  Se1       1.0  0.61700  0.23400  0.38300  1.0000
  Se  Se2       1.0  0.14800  0.76600  0.38300  1.0000
  Se  Se3       1.0  0.61700  0.76600  0.38300  1.0000
  Se  Se4       1.0  0.13300  0.26600  0.39800  1.0000
  Se  Se5       1.0  0.61700  0.23400  0.85200  1.0000
  Se  Se6       1.0  0.13300  0.26600  0.86700  1.0000
  Se  Se7       1.0  0.13300  0.73400  0.86700  1.0000
  Se  Se8       1.0  0.60200  0.73400  0.86700  1.0000
  Tm  Tm1       1.0  0.37500  0.75000  0.12500  1.0000
  Tm  Tm2       1.0  0.37500  0.25000  0.62500  1.0000
  Tm  Tm3       1.0  0.37500  0.75000  0.62500  1.0000
  Tm  Tm4       1.0  0.87500  0.25000  0.62500  1.0000
