data_image0
_chemical_formula_structural       K2Pr2Te8
_chemical_formula_sum              "K2 Pr2 Te8"
_cell_length_a       6.95849
_cell_length_b       6.95849
_cell_length_c       9.00253
_cell_angle_alpha    90
_cell_angle_beta     90
_cell_angle_gamma    90

_space_group_name_H-M_alt    "P 1"
_space_group_IT_number       1

loop_
  _space_group_symop_operation_xyz
  'x, y, z'

loop_
  _atom_site_type_symbol
  _atom_site_label
  _atom_site_symmetry_multiplicity
  _atom_site_fract_x
  _atom_site_fract_y
  _atom_site_fract_z
  _atom_site_occupancy
  K   K1        1.0  0.25000  0.25000  0.00000  1.0000
  K   K2        1.0  0.75000  0.75000  0.00000  1.0000
  Pr  Pr1       1.0  0.25000  0.25000  0.50000  1.0000
  Pr  Pr2       1.0  0.75000  0.75000  0.50000  1.0000
  Te  Te1       1.0  0.60600  0.10600  0.28400  1.0000
  Te  Te2       1.0  0.89400  0.39400  0.28400  1.0000
  Te  Te3       1.0  0.39400  0.60600  0.28400  1.0000
  Te  Te4       1.0  0.10600  0.89400  0.28400  1.0000
  Te  Te5       1.0  0.89400  0.10600  0.71600  1.0000
  Te  Te6       1.0  0.60600  0.39400  0.71600  1.0000
  Te  Te7       1.0  0.10600  0.60600  0.71600  1.0000
  Te  Te8       1.0  0.39400  0.89400  0.71600  1.0000
