data_image0
_chemical_formula_structural       BiKLi6O6
_chemical_formula_sum              "Bi1 K1 Li6 O6"
_cell_length_a       5.43315
_cell_length_b       5.43315
_cell_length_c       5.43315
_cell_angle_alpha    101.528
_cell_angle_beta     101.528
_cell_angle_gamma    101.528

_space_group_name_H-M_alt    "P 1"
_space_group_IT_number       1

loop_
  _space_group_symop_operation_xyz
  'x, y, z'

loop_
  _atom_site_type_symbol
  _atom_site_label
  _atom_site_symmetry_multiplicity
  _atom_site_fract_x
  _atom_site_fract_y
  _atom_site_fract_z
  _atom_site_occupancy
  Bi  Bi1       1.0  0.00000  0.00000  0.00000  1.0000
  K   K1        1.0  0.50000  0.50000  0.50000  1.0000
  Li  Li1       1.0  0.65500  0.34400  0.00000  1.0000
  Li  Li2       1.0  0.34400  0.65600  0.00000  1.0000
  Li  Li3       1.0  0.65500  0.00000  0.34400  1.0000
  Li  Li4       1.0  0.00000  0.65600  0.34400  1.0000
  Li  Li5       1.0  0.00000  0.34400  0.65500  1.0000
  Li  Li6       1.0  0.34400  0.00000  0.65500  1.0000
  O   O1        1.0  0.71900  0.71900  0.09110  1.0000
  O   O2        1.0  0.28100  0.90900  0.28100  1.0000
  O   O3        1.0  0.90900  0.28100  0.28100  1.0000
  O   O4        1.0  0.09110  0.71900  0.71900  1.0000
  O   O5        1.0  0.71900  0.09110  0.71900  1.0000
  O   O6        1.0  0.28100  0.28100  0.90900  1.0000
