data_image0
_chemical_formula_structural       As4B2Rb6
_chemical_formula_sum              "As4 B2 Rb6"
_cell_length_a       6.89308
_cell_length_b       6.89308
_cell_length_c       9.6406
_cell_angle_alpha    104.699
_cell_angle_beta     75.3014
_cell_angle_gamma    92.2594

_space_group_name_H-M_alt    "P 1"
_space_group_IT_number       1

loop_
  _space_group_symop_operation_xyz
  'x, y, z'

loop_
  _atom_site_type_symbol
  _atom_site_label
  _atom_site_symmetry_multiplicity
  _atom_site_fract_x
  _atom_site_fract_y
  _atom_site_fract_z
  _atom_site_occupancy
  As  As1       1.0  0.09520  0.34700  0.14200  1.0000
  As  As2       1.0  0.34700  0.09520  0.35800  1.0000
  As  As3       1.0  0.65300  0.90500  0.64200  1.0000
  As  As4       1.0  0.90500  0.65300  0.85800  1.0000
  B   B1        1.0  0.21800  0.21800  0.25000  1.0000
  B   B2        1.0  0.78200  0.78200  0.75000  1.0000
  Rb  Rb1       1.0  0.35100  0.75700  0.98300  1.0000
  Rb  Rb2       1.0  0.64900  0.24300  0.01700  1.0000
  Rb  Rb3       1.0  0.85000  0.85000  0.25000  1.0000
  Rb  Rb4       1.0  0.24300  0.64900  0.48300  1.0000
  Rb  Rb5       1.0  0.75700  0.35100  0.51700  1.0000
  Rb  Rb6       1.0  0.15000  0.15000  0.75000  1.0000
