data_image0
_chemical_formula_structural       Cu4Eu2O8
_chemical_formula_sum              "Cu4 Eu2 O8"
_cell_length_a       5.7485
_cell_length_b       5.72179
_cell_length_c       6.20105
_cell_angle_alpha    116.824
_cell_angle_beta     116.965
_cell_angle_gamma    91.2491

_space_group_name_H-M_alt    "P 1"
_space_group_IT_number       1

loop_
  _space_group_symop_operation_xyz
  'x, y, z'

loop_
  _atom_site_type_symbol
  _atom_site_label
  _atom_site_symmetry_multiplicity
  _atom_site_fract_x
  _atom_site_fract_y
  _atom_site_fract_z
  _atom_site_occupancy
  Cu  Cu1       1.0  0.50000  0.00000  0.00000  1.0000
  Cu  Cu2       1.0  0.50000  0.50000  0.00000  1.0000
  Cu  Cu3       1.0  0.50000  1.00000  0.50000  1.0000
  Cu  Cu4       1.0  0.00000  1.00000  0.50000  1.0000
  Eu  Eu1       1.0  0.12600  0.37600  0.25100  1.0000
  Eu  Eu2       1.0  0.87400  0.62400  0.74900  1.0000
  O   O1        1.0  0.85000  0.68500  0.15100  1.0000
  O   O2        1.0  0.30100  0.96600  0.15100  1.0000
  O   O3        1.0  0.81200  0.19500  0.35000  1.0000
  O   O4        1.0  0.53800  0.65500  0.35000  1.0000
  O   O5        1.0  0.46200  0.34500  0.65000  1.0000
  O   O6        1.0  0.18800  0.80500  0.65000  1.0000
  O   O7        1.0  0.69900  0.03400  0.84900  1.0000
  O   O8        1.0  0.15000  0.31500  0.84900  1.0000
