data_image0
_chemical_formula_structural       La2Na2O8Ti2
_chemical_formula_sum              "La2 Na2 O8 Ti2"
_cell_length_a       3.7677
_cell_length_b       3.7677
_cell_length_c       12.9729
_cell_angle_alpha    90
_cell_angle_beta     90
_cell_angle_gamma    90

_space_group_name_H-M_alt    "P 1"
_space_group_IT_number       1

loop_
  _space_group_symop_operation_xyz
  'x, y, z'

loop_
  _atom_site_type_symbol
  _atom_site_label
  _atom_site_symmetry_multiplicity
  _atom_site_fract_x
  _atom_site_fract_y
  _atom_site_fract_z
  _atom_site_occupancy
  La  La1       1.0  0.50000  0.00000  0.11000  1.0000
  La  La2       1.0  0.00000  0.50000  0.89000  1.0000
  Na  Na1       1.0  0.50000  0.00000  0.41500  1.0000
  Na  Na2       1.0  0.00000  0.50000  0.58500  1.0000
  O   O1        1.0  0.00000  0.50000  0.07120  1.0000
  O   O2        1.0  0.00000  0.00000  0.23900  1.0000
  O   O3        1.0  0.50000  0.50000  0.23900  1.0000
  O   O4        1.0  0.00000  0.50000  0.41200  1.0000
  O   O5        1.0  0.50000  0.00000  0.58800  1.0000
  O   O6        1.0  0.00000  0.00000  0.76100  1.0000
  O   O7        1.0  0.50000  0.50000  0.76100  1.0000
  O   O8        1.0  0.50000  0.00000  0.92900  1.0000
  Ti  Ti1       1.0  0.00000  0.50000  0.27600  1.0000
  Ti  Ti2       1.0  0.50000  0.00000  0.72400  1.0000
