data_image0
_chemical_formula_structural       B2O6Tl6
_chemical_formula_sum              "B2 O6 Tl6"
_cell_length_a       9.26182
_cell_length_b       9.26165
_cell_length_c       3.73512
_cell_angle_alpha    90
_cell_angle_beta     90
_cell_angle_gamma    120

_space_group_name_H-M_alt    "P 1"
_space_group_IT_number       1

loop_
  _space_group_symop_operation_xyz
  'x, y, z'

loop_
  _atom_site_type_symbol
  _atom_site_label
  _atom_site_symmetry_multiplicity
  _atom_site_fract_x
  _atom_site_fract_y
  _atom_site_fract_z
  _atom_site_occupancy
  B   B1        1.0  0.66700  0.33300  0.25000  1.0000
  B   B2        1.0  0.33300  0.66700  0.75000  1.0000
  O   O1        1.0  0.56900  0.16000  0.25000  1.0000
  O   O2        1.0  0.84000  0.40900  0.25000  1.0000
  O   O3        1.0  0.59100  0.43100  0.25000  1.0000
  O   O4        1.0  0.40900  0.56900  0.75000  1.0000
  O   O5        1.0  0.16000  0.59100  0.75000  1.0000
  O   O6        1.0  0.43100  0.84000  0.75000  1.0000
  Tl  Tl1       1.0  0.29300  0.35200  0.25000  1.0000
  Tl  Tl2       1.0  0.05840  0.70700  0.25000  1.0000
  Tl  Tl3       1.0  0.64800  0.94200  0.25000  1.0000
  Tl  Tl4       1.0  0.35200  0.05840  0.75000  1.0000
  Tl  Tl5       1.0  0.94200  0.29300  0.75000  1.0000
  Tl  Tl6       1.0  0.70700  0.64800  0.75000  1.0000
