data_image0
_chemical_formula_structural       Te8U6
_chemical_formula_sum              "Te8 U6"
_cell_length_a       8.02507
_cell_length_b       8.02507
_cell_length_c       8.02507
_cell_angle_alpha    109.471
_cell_angle_beta     109.471
_cell_angle_gamma    109.471

_space_group_name_H-M_alt    "P 1"
_space_group_IT_number       1

loop_
  _space_group_symop_operation_xyz
  'x, y, z'

loop_
  _atom_site_type_symbol
  _atom_site_label
  _atom_site_symmetry_multiplicity
  _atom_site_fract_x
  _atom_site_fract_y
  _atom_site_fract_z
  _atom_site_occupancy
  Te  Te1       1.0  0.15500  0.00000  0.00000  1.0000
  Te  Te2       1.0  0.65500  0.00000  0.00000  1.0000
  Te  Te3       1.0  0.50000  0.50000  0.15500  1.0000
  Te  Te4       1.0  0.34500  0.84500  0.34500  1.0000
  Te  Te5       1.0  0.00000  0.65500  0.50000  1.0000
  Te  Te6       1.0  0.00000  0.15500  0.50000  1.0000
  Te  Te7       1.0  0.50000  0.50000  0.65500  1.0000
  Te  Te8       1.0  0.84500  0.34500  0.84500  1.0000
  U   U1        1.0  0.87500  0.75000  0.12500  1.0000
  U   U2        1.0  0.12500  0.37500  0.25000  1.0000
  U   U3        1.0  0.62500  0.25000  0.37500  1.0000
  U   U4        1.0  0.75000  0.87500  0.62500  1.0000
  U   U5        1.0  0.37500  0.12500  0.75000  1.0000
  U   U6        1.0  0.25000  0.62500  0.87500  1.0000
