data_image0
_chemical_formula_structural       Cu4Sm4
_chemical_formula_sum              "Cu4 Sm4"
_cell_length_a       7.17922
_cell_length_b       4.45656
_cell_length_c       5.65032
_cell_angle_alpha    90
_cell_angle_beta     90
_cell_angle_gamma    90

_space_group_name_H-M_alt    "P 1"
_space_group_IT_number       1

loop_
  _space_group_symop_operation_xyz
  'x, y, z'

loop_
  _atom_site_type_symbol
  _atom_site_label
  _atom_site_symmetry_multiplicity
  _atom_site_fract_x
  _atom_site_fract_y
  _atom_site_fract_z
  _atom_site_occupancy
  Cu  Cu1       1.0  0.46500  0.75000  0.12500  1.0000
  Cu  Cu2       1.0  0.96500  0.75000  0.37500  1.0000
  Cu  Cu3       1.0  0.03500  0.25000  0.62500  1.0000
  Cu  Cu4       1.0  0.53500  0.25000  0.87500  1.0000
  Sm  Sm1       1.0  0.18000  0.25000  0.13600  1.0000
  Sm  Sm2       1.0  0.68000  0.25000  0.36400  1.0000
  Sm  Sm3       1.0  0.32000  0.75000  0.63600  1.0000
  Sm  Sm4       1.0  0.82000  0.75000  0.86400  1.0000
