data_image0
_chemical_formula_structural       La3O10Re2
_chemical_formula_sum              "La3 O10 Re2"
_cell_length_a       5.54883
_cell_length_b       5.54883
_cell_length_c       7.08741
_cell_angle_alpha    107.538
_cell_angle_beta     72.4616
_cell_angle_gamma    90.1773

_space_group_name_H-M_alt    "P 1"
_space_group_IT_number       1

loop_
  _space_group_symop_operation_xyz
  'x, y, z'

loop_
  _atom_site_type_symbol
  _atom_site_label
  _atom_site_symmetry_multiplicity
  _atom_site_fract_x
  _atom_site_fract_y
  _atom_site_fract_z
  _atom_site_occupancy
  La  La1       1.0  0.00000  0.00000  0.00000  1.0000
  La  La2       1.0  0.25800  0.25800  0.50000  1.0000
  La  La3       1.0  0.74200  0.74200  0.50000  1.0000
  O   O1        1.0  0.64700  0.35300  0.09950  1.0000
  O   O2        1.0  0.12500  0.39700  0.21200  1.0000
  O   O3        1.0  0.60300  0.87500  0.21200  1.0000
  O   O4        1.0  0.09170  0.90800  0.28200  1.0000
  O   O5        1.0  0.32600  0.67400  0.47500  1.0000
  O   O6        1.0  0.67400  0.32600  0.52500  1.0000
  O   O7        1.0  0.90800  0.09170  0.71800  1.0000
  O   O8        1.0  0.39700  0.12500  0.78800  1.0000
  O   O9        1.0  0.87500  0.60300  0.78800  1.0000
  O   O10       1.0  0.35300  0.64700  0.90100  1.0000
  Re  Re1       1.0  0.36500  0.63500  0.17600  1.0000
  Re  Re2       1.0  0.63500  0.36500  0.82400  1.0000
