data_image0
_chemical_formula_structural       Ge12Ir3
_chemical_formula_sum              "Ge12 Ir3"
_cell_length_a       6.28487
_cell_length_b       6.28487
_cell_length_c       7.87108
_cell_angle_alpha    90
_cell_angle_beta     90
_cell_angle_gamma    120

_space_group_name_H-M_alt    "P 1"
_space_group_IT_number       1

loop_
  _space_group_symop_operation_xyz
  'x, y, z'

loop_
  _atom_site_type_symbol
  _atom_site_label
  _atom_site_symmetry_multiplicity
  _atom_site_fract_x
  _atom_site_fract_y
  _atom_site_fract_z
  _atom_site_occupancy
  Ge  Ge1       1.0  0.48500  0.22100  0.05230  1.0000
  Ge  Ge2       1.0  0.00000  0.61800  0.16700  1.0000
  Ge  Ge3       1.0  0.00000  0.08020  0.16700  1.0000
  Ge  Ge4       1.0  0.51500  0.73600  0.28100  1.0000
  Ge  Ge5       1.0  0.77900  0.26400  0.38600  1.0000
  Ge  Ge6       1.0  0.38200  0.38200  0.50000  1.0000
  Ge  Ge7       1.0  0.92000  0.92000  0.50000  1.0000
  Ge  Ge8       1.0  0.26400  0.77900  0.61400  1.0000
  Ge  Ge9       1.0  0.73600  0.51500  0.71900  1.0000
  Ge  Ge10      1.0  0.61800  0.00000  0.83300  1.0000
  Ge  Ge11      1.0  0.08020  0.00001  0.83300  1.0000
  Ge  Ge12      1.0  0.22100  0.48500  0.94800  1.0000
  Ir  Ir1       1.0  0.68400  0.68400  0.00002  1.0000
  Ir  Ir2       1.0  0.31600  0.00000  0.33300  1.0000
  Ir  Ir3       1.0  0.00000  0.31600  0.66700  1.0000
