data_image0
_chemical_formula_structural       NiTe2
_chemical_formula_sum              "Ni1 Te2"
_cell_length_a       3.87444
_cell_length_b       3.87437
_cell_length_c       5.25873
_cell_angle_alpha    90
_cell_angle_beta     90.0025
_cell_angle_gamma    119.999

_space_group_name_H-M_alt    "P 1"
_space_group_IT_number       1

loop_
  _space_group_symop_operation_xyz
  'x, y, z'

loop_
  _atom_site_type_symbol
  _atom_site_label
  _atom_site_symmetry_multiplicity
  _atom_site_fract_x
  _atom_site_fract_y
  _atom_site_fract_z
  _atom_site_occupancy
  Ni  Ni1       1.0  0.00000  0.00000  0.00000  1.0000
  Te  Te1       1.0  0.33300  0.66700  0.25000  1.0000
  Te  Te2       1.0  0.66700  0.33300  0.75000  1.0000
