data_image0
_chemical_formula_structural       Dy2Ge2
_chemical_formula_sum              "Dy2 Ge2"
_cell_length_a       3.96057
_cell_length_b       4.27749
_cell_length_c       5.77443
_cell_angle_alpha    68.2608
_cell_angle_beta     90
_cell_angle_gamma    90

_space_group_name_H-M_alt    "P 1"
_space_group_IT_number       1

loop_
  _space_group_symop_operation_xyz
  'x, y, z'

loop_
  _atom_site_type_symbol
  _atom_site_label
  _atom_site_symmetry_multiplicity
  _atom_site_fract_x
  _atom_site_fract_y
  _atom_site_fract_z
  _atom_site_occupancy
  Dy  Dy1       1.0  0.25000  0.86200  0.27700  1.0000
  Dy  Dy2       1.0  0.75000  0.13800  0.72300  1.0000
  Ge  Ge1       1.0  0.75000  0.41500  0.17000  1.0000
  Ge  Ge2       1.0  0.25000  0.58500  0.83000  1.0000
