data_image0
_chemical_formula_structural       MgP3
_chemical_formula_sum              "Mg1 P3"
_cell_length_a       3.31359
_cell_length_b       3.31359
_cell_length_c       6.93304
_cell_angle_alpha    90
_cell_angle_beta     90
_cell_angle_gamma    120

_space_group_name_H-M_alt    "P 1"
_space_group_IT_number       1

loop_
  _space_group_symop_operation_xyz
  'x, y, z'

loop_
  _atom_site_type_symbol
  _atom_site_label
  _atom_site_symmetry_multiplicity
  _atom_site_fract_x
  _atom_site_fract_y
  _atom_site_fract_z
  _atom_site_occupancy
  Mg  Mg1       1.0  0.66700  0.33300  0.75000  1.0000
  P   P1        1.0  0.00000  0.00000  0.02480  1.0000
  P   P2        1.0  0.66700  0.33300  0.25000  1.0000
  P   P3        1.0  0.00000  0.00000  0.47500  1.0000
