data_image0
_chemical_formula_structural       Fe4Rb2S6
_chemical_formula_sum              "Fe4 Rb2 S6"
_cell_length_a       5.15391
_cell_length_b       7.22542
_cell_length_c       7.22543
_cell_angle_alpha    77.5777
_cell_angle_beta     90.0085
_cell_angle_gamma    90.0085

_space_group_name_H-M_alt    "P 1"
_space_group_IT_number       1

loop_
  _space_group_symop_operation_xyz
  'x, y, z'

loop_
  _atom_site_type_symbol
  _atom_site_label
  _atom_site_symmetry_multiplicity
  _atom_site_fract_x
  _atom_site_fract_y
  _atom_site_fract_z
  _atom_site_occupancy
  Fe  Fe1       1.0  0.50000  0.86000  0.14000  1.0000
  Fe  Fe2       1.0  0.00000  0.86000  0.14000  1.0000
  Fe  Fe3       1.0  0.00000  0.14000  0.86000  1.0000
  Fe  Fe4       1.0  0.50000  0.14000  0.86000  1.0000
  Rb  Rb1       1.0  0.75000  0.32900  0.32900  1.0000
  Rb  Rb2       1.0  0.25000  0.67100  0.67100  1.0000
  S   S1        1.0  0.25000  0.10800  0.10800  1.0000
  S   S2        1.0  0.25000  0.62300  0.16600  1.0000
  S   S3        1.0  0.75000  0.83400  0.37700  1.0000
  S   S4        1.0  0.25000  0.16600  0.62300  1.0000
  S   S5        1.0  0.75000  0.37700  0.83400  1.0000
  S   S6        1.0  0.75000  0.89200  0.89200  1.0000
