data_image0
_chemical_formula_structural       O3PRb8
_chemical_formula_sum              "O3 P1 Rb8"
_cell_length_a       7.11465
_cell_length_b       7.11465
_cell_length_c       7.11465
_cell_angle_alpha    90
_cell_angle_beta     90
_cell_angle_gamma    90

_space_group_name_H-M_alt    "P 1"
_space_group_IT_number       1

loop_
  _space_group_symop_operation_xyz
  'x, y, z'

loop_
  _atom_site_type_symbol
  _atom_site_label
  _atom_site_symmetry_multiplicity
  _atom_site_fract_x
  _atom_site_fract_y
  _atom_site_fract_z
  _atom_site_occupancy
  O   O1        1.0  0.50000  0.50000  0.00000  1.0000
  O   O2        1.0  0.50000  0.00000  0.50000  1.0000
  O   O3        1.0  0.00000  0.50000  0.50000  1.0000
  P   P1        1.0  0.00000  0.00000  0.00000  1.0000
  Rb  Rb1       1.0  0.26300  0.26300  0.26300  1.0000
  Rb  Rb2       1.0  0.73700  0.26300  0.26300  1.0000
  Rb  Rb3       1.0  0.26300  0.73700  0.26300  1.0000
  Rb  Rb4       1.0  0.73700  0.73700  0.26300  1.0000
  Rb  Rb5       1.0  0.26300  0.26300  0.73700  1.0000
  Rb  Rb6       1.0  0.73700  0.26300  0.73700  1.0000
  Rb  Rb7       1.0  0.26300  0.73700  0.73700  1.0000
  Rb  Rb8       1.0  0.73700  0.73700  0.73700  1.0000
