data_image0
_chemical_formula_structural       Lu2O8V2
_chemical_formula_sum              "Lu2 O8 V2"
_cell_length_a       5.83004
_cell_length_b       5.83004
_cell_length_c       5.83004
_cell_angle_alpha    106.471
_cell_angle_beta     115.654
_cell_angle_gamma    106.471

_space_group_name_H-M_alt    "P 1"
_space_group_IT_number       1

loop_
  _space_group_symop_operation_xyz
  'x, y, z'

loop_
  _atom_site_type_symbol
  _atom_site_label
  _atom_site_symmetry_multiplicity
  _atom_site_fract_x
  _atom_site_fract_y
  _atom_site_fract_z
  _atom_site_occupancy
  Lu  Lu1       1.0  0.00000  0.00000  0.00000  1.0000
  Lu  Lu2       1.0  0.75000  0.50000  0.25000  1.0000
  O   O1        1.0  0.13200  0.81100  0.32100  1.0000
  O   O2        1.0  0.51000  0.18900  0.32100  1.0000
  O   O3        1.0  0.07090  0.31100  0.38200  1.0000
  O   O4        1.0  0.67900  0.81100  0.49000  1.0000
  O   O5        1.0  0.07090  0.68900  0.76000  1.0000
  O   O6        1.0  0.67900  0.18900  0.86800  1.0000
  O   O7        1.0  0.24000  0.31100  0.92900  1.0000
  O   O8        1.0  0.61800  0.68900  0.92900  1.0000
  V   V1        1.0  0.50000  0.00000  0.50000  1.0000
  V   V2        1.0  0.25000  0.50000  0.75000  1.0000
