data_image0
_chemical_formula_structural       As4Cu4Se4
_chemical_formula_sum              "As4 Cu4 Se4"
_cell_length_a       11.8248
_cell_length_b       5.66031
_cell_length_c       3.93566
_cell_angle_alpha    90
_cell_angle_beta     90
_cell_angle_gamma    90

_space_group_name_H-M_alt    "P 1"
_space_group_IT_number       1

loop_
  _space_group_symop_operation_xyz
  'x, y, z'

loop_
  _atom_site_type_symbol
  _atom_site_label
  _atom_site_symmetry_multiplicity
  _atom_site_fract_x
  _atom_site_fract_y
  _atom_site_fract_z
  _atom_site_occupancy
  As  As1       1.0  0.48400  0.14100  0.24700  1.0000
  As  As2       1.0  0.98400  0.35900  0.24700  1.0000
  As  As3       1.0  0.01550  0.64100  0.74700  1.0000
  As  As4       1.0  0.51600  0.85900  0.74700  1.0000
  Cu  Cu1       1.0  0.83200  0.08630  0.24800  1.0000
  Cu  Cu2       1.0  0.33200  0.41400  0.24800  1.0000
  Cu  Cu3       1.0  0.66800  0.58600  0.74800  1.0000
  Cu  Cu4       1.0  0.16800  0.91400  0.74800  1.0000
  Se  Se1       1.0  0.16800  0.15900  0.24800  1.0000
  Se  Se2       1.0  0.66800  0.34100  0.24800  1.0000
  Se  Se3       1.0  0.33200  0.65900  0.74800  1.0000
  Se  Se4       1.0  0.83200  0.84100  0.74800  1.0000
