data_image0
_chemical_formula_structural       Sb4Sn2Zn2
_chemical_formula_sum              "Sb4 Sn2 Zn2"
_cell_length_a       6.37165
_cell_length_b       6.37165
_cell_length_c       7.8182
_cell_angle_alpha    114.047
_cell_angle_beta     114.047
_cell_angle_gamma    90

_space_group_name_H-M_alt    "P 1"
_space_group_IT_number       1

loop_
  _space_group_symop_operation_xyz
  'x, y, z'

loop_
  _atom_site_type_symbol
  _atom_site_label
  _atom_site_symmetry_multiplicity
  _atom_site_fract_x
  _atom_site_fract_y
  _atom_site_fract_z
  _atom_site_occupancy
  Sb  Sb1       1.0  0.34800  0.37500  0.25000  1.0000
  Sb  Sb2       1.0  0.90200  0.87500  0.25000  1.0000
  Sb  Sb3       1.0  0.62500  0.09840  0.75000  1.0000
  Sb  Sb4       1.0  0.12500  0.65200  0.75000  1.0000
  Sn  Sn1       1.0  0.50000  0.50000  0.00000  1.0000
  Sn  Sn2       1.0  0.75000  0.25000  0.50000  1.0000
  Zn  Zn1       1.0  0.00000  0.00000  0.00000  1.0000
  Zn  Zn2       1.0  0.25000  0.75000  0.50000  1.0000
