data_image0
_chemical_formula_structural       Eu2IP
_chemical_formula_sum              "Eu2 I1 P1"
_cell_length_a       4.40083
_cell_length_b       4.40083
_cell_length_c       8.0541
_cell_angle_alpha    105.855
_cell_angle_beta     105.855
_cell_angle_gamma    60

_space_group_name_H-M_alt    "P 1"
_space_group_IT_number       1

loop_
  _space_group_symop_operation_xyz
  'x, y, z'

loop_
  _atom_site_type_symbol
  _atom_site_label
  _atom_site_symmetry_multiplicity
  _atom_site_fract_x
  _atom_site_fract_y
  _atom_site_fract_z
  _atom_site_occupancy
  Eu  Eu1       1.0  0.76800  0.76800  0.30300  1.0000
  Eu  Eu2       1.0  0.23200  0.23200  0.69700  1.0000
  I   I1        1.0  0.00000  0.00000  0.00000  1.0000
  P   P1        1.0  0.50000  0.50000  0.50000  1.0000
