data_image0
_chemical_formula_structural       GdO2Rb
_chemical_formula_sum              "Gd1 O2 Rb1"
_cell_length_a       3.5264
_cell_length_b       3.5264
_cell_length_c       6.81318
_cell_angle_alpha    75.0016
_cell_angle_beta     104.998
_cell_angle_gamma    120

_space_group_name_H-M_alt    "P 1"
_space_group_IT_number       1

loop_
  _space_group_symop_operation_xyz
  'x, y, z'

loop_
  _atom_site_type_symbol
  _atom_site_label
  _atom_site_symmetry_multiplicity
  _atom_site_fract_x
  _atom_site_fract_y
  _atom_site_fract_z
  _atom_site_occupancy
  Gd  Gd1       1.0  0.50000  0.50000  0.50000  1.0000
  O   O1        1.0  0.77400  0.22600  0.32200  1.0000
  O   O2        1.0  0.22600  0.77400  0.67800  1.0000
  Rb  Rb1       1.0  0.00000  0.00000  0.00000  1.0000
