data_image0
_chemical_formula_structural       Br6U2
_chemical_formula_sum              "Br6 U2"
_cell_length_a       7.97834
_cell_length_b       7.9568
_cell_length_c       4.44468
_cell_angle_alpha    90
_cell_angle_beta     90
_cell_angle_gamma    119.769

_space_group_name_H-M_alt    "P 1"
_space_group_IT_number       1

loop_
  _space_group_symop_operation_xyz
  'x, y, z'

loop_
  _atom_site_type_symbol
  _atom_site_label
  _atom_site_symmetry_multiplicity
  _atom_site_fract_x
  _atom_site_fract_y
  _atom_site_fract_z
  _atom_site_occupancy
  Br  Br1       1.0  0.30000  0.38600  0.25000  1.0000
  Br  Br2       1.0  0.08630  0.70000  0.25000  1.0000
  Br  Br3       1.0  0.61400  0.91400  0.25000  1.0000
  Br  Br4       1.0  0.38600  0.08610  0.75000  1.0000
  Br  Br5       1.0  0.91400  0.30000  0.75000  1.0000
  Br  Br6       1.0  0.70000  0.61400  0.75000  1.0000
  U   U1        1.0  0.66700  0.33400  0.25000  1.0000
  U   U2        1.0  0.33300  0.66600  0.75000  1.0000
