data_image0
_chemical_formula_structural       C3H3LaO6
_chemical_formula_sum              "C3 H3 La1 O6"
_cell_length_a       4.10208
_cell_length_b       6.3148
_cell_length_c       6.3148
_cell_angle_alpha    115.447
_cell_angle_beta     102.505
_cell_angle_gamma    102.505

_space_group_name_H-M_alt    "P 1"
_space_group_IT_number       1

loop_
  _space_group_symop_operation_xyz
  'x, y, z'

loop_
  _atom_site_type_symbol
  _atom_site_label
  _atom_site_symmetry_multiplicity
  _atom_site_fract_x
  _atom_site_fract_y
  _atom_site_fract_z
  _atom_site_occupancy
  C   C1        1.0  0.61500  0.45800  0.00000  1.0000
  C   C2        1.0  0.61500  0.00000  0.45800  1.0000
  C   C3        1.0  0.15700  0.54200  0.54200  1.0000
  H   H1        1.0  0.37800  0.51500  0.00000  1.0000
  H   H2        1.0  0.86300  0.48500  0.48500  1.0000
  H   H3        1.0  0.37800  0.00000  0.51500  1.0000
  La  La1       1.0  0.00373  0.00000  0.00000  1.0000
  O   O1        1.0  0.88900  0.59500  0.00000  1.0000
  O   O2        1.0  0.59200  0.25300  0.00000  1.0000
  O   O3        1.0  0.59200  0.00000  0.25300  1.0000
  O   O4        1.0  0.29400  0.40500  0.40500  1.0000
  O   O5        1.0  0.88900  0.00000  0.59500  1.0000
  O   O6        1.0  0.33800  0.74700  0.74700  1.0000
