data_image0
_chemical_formula_structural       C3H3NdO6
_chemical_formula_sum              "C3 H3 Nd1 O6"
_cell_length_a       4.02152
_cell_length_b       6.23648
_cell_length_c       6.23648
_cell_angle_alpha    115.512
_cell_angle_beta     102.412
_cell_angle_gamma    102.412

_space_group_name_H-M_alt    "P 1"
_space_group_IT_number       1

loop_
  _space_group_symop_operation_xyz
  'x, y, z'

loop_
  _atom_site_type_symbol
  _atom_site_label
  _atom_site_symmetry_multiplicity
  _atom_site_fract_x
  _atom_site_fract_y
  _atom_site_fract_z
  _atom_site_occupancy
  C   C1        1.0  0.47300  0.46000  0.00000  1.0000
  C   C2        1.0  0.47300  1.00000  0.46000  1.0000
  C   C3        1.0  0.01310  0.54000  0.54000  1.0000
  H   H1        1.0  0.23300  0.51800  0.00000  1.0000
  H   H2        1.0  0.71400  0.48200  0.48200  1.0000
  H   H3        1.0  0.23300  0.00000  0.51800  1.0000
  Nd  Nd1       1.0  0.86400  0.00000  0.00000  1.0000
  O   O1        1.0  0.75300  0.59800  0.00000  1.0000
  O   O2        1.0  0.45000  0.25300  0.00000  1.0000
  O   O3        1.0  0.45000  0.00000  0.25300  1.0000
  O   O4        1.0  0.15500  0.40200  0.40200  1.0000
  O   O5        1.0  0.75300  0.00000  0.59800  1.0000
  O   O6        1.0  0.19700  0.74700  0.74700  1.0000
