data_image0
_chemical_formula_structural       C3H3O6Tm
_chemical_formula_sum              "C3 H3 O6 Tm1"
_cell_length_a       3.87247
_cell_length_b       6.0522
_cell_length_c       6.0522
_cell_angle_alpha    115.58
_cell_angle_beta     102.315
_cell_angle_gamma    102.315

_space_group_name_H-M_alt    "P 1"
_space_group_IT_number       1

loop_
  _space_group_symop_operation_xyz
  'x, y, z'

loop_
  _atom_site_type_symbol
  _atom_site_label
  _atom_site_symmetry_multiplicity
  _atom_site_fract_x
  _atom_site_fract_y
  _atom_site_fract_z
  _atom_site_occupancy
  C   C1        1.0  0.60700  0.46200  0.00000  1.0000
  C   C2        1.0  0.60700  0.00000  0.46200  1.0000
  C   C3        1.0  0.14500  0.53800  0.53800  1.0000
  H   H1        1.0  0.35300  0.51700  0.00000  1.0000
  H   H2        1.0  0.83600  0.48300  0.48300  1.0000
  H   H3        1.0  0.35300  0.00000  0.51700  1.0000
  O   O1        1.0  0.59100  0.25000  0.00000  1.0000
  O   O2        1.0  0.89200  0.60900  0.00000  1.0000
  O   O3        1.0  0.59100  0.00000  0.25000  1.0000
  O   O4        1.0  0.28300  0.39100  0.39100  1.0000
  O   O5        1.0  0.89200  0.00000  0.60900  1.0000
  O   O6        1.0  0.34100  0.75000  0.75000  1.0000
  Tm  Tm1       1.0  0.00097  0.00000  0.00000  1.0000
