data_image0
_chemical_formula_structural       Eu2Pd2
_chemical_formula_sum              "Eu2 Pd2"
_cell_length_a       3.98061
_cell_length_b       4.42794
_cell_length_c       5.80958
_cell_angle_alpha    90
_cell_angle_beta     69.9652
_cell_angle_gamma    90

_space_group_name_H-M_alt    "P 1"
_space_group_IT_number       1

loop_
  _space_group_symop_operation_xyz
  'x, y, z'

loop_
  _atom_site_type_symbol
  _atom_site_label
  _atom_site_symmetry_multiplicity
  _atom_site_fract_x
  _atom_site_fract_y
  _atom_site_fract_z
  _atom_site_occupancy
  Eu  Eu1       1.0  0.86200  0.25000  0.27700  1.0000
  Eu  Eu2       1.0  0.13800  0.75000  0.72300  1.0000
  Pd  Pd1       1.0  0.41900  0.75000  0.16200  1.0000
  Pd  Pd2       1.0  0.58100  0.25000  0.83800  1.0000
