data_image0
_chemical_formula_structural       Au6Ho2
_chemical_formula_sum              "Au6 Ho2"
_cell_length_a       6.09888
_cell_length_b       5.01014
_cell_length_c       5.12537
_cell_angle_alpha    90
_cell_angle_beta     90
_cell_angle_gamma    90

_space_group_name_H-M_alt    "P 1"
_space_group_IT_number       1

loop_
  _space_group_symop_operation_xyz
  'x, y, z'

loop_
  _atom_site_type_symbol
  _atom_site_label
  _atom_site_symmetry_multiplicity
  _atom_site_fract_x
  _atom_site_fract_y
  _atom_site_fract_z
  _atom_site_occupancy
  Au  Au1       1.0  0.25600  0.00000  0.16000  1.0000
  Au  Au2       1.0  0.74400  0.00000  0.16000  1.0000
  Au  Au3       1.0  0.00000  0.50000  0.33700  1.0000
  Au  Au4       1.0  0.50000  0.00000  0.66300  1.0000
  Au  Au5       1.0  0.24400  0.50000  0.84000  1.0000
  Au  Au6       1.0  0.75600  0.50000  0.84000  1.0000
  Ho  Ho1       1.0  0.50000  0.50000  0.34500  1.0000
  Ho  Ho2       1.0  0.00000  0.00000  0.65500  1.0000
