data_image0
_chemical_formula_structural       F2HLi
_chemical_formula_sum              "F2 H1 Li1"
_cell_length_a       4.66038
_cell_length_b       4.66038
_cell_length_c       4.66038
_cell_angle_alpha    35.6509
_cell_angle_beta     35.6509
_cell_angle_gamma    35.6509

_space_group_name_H-M_alt    "P 1"
_space_group_IT_number       1

loop_
  _space_group_symop_operation_xyz
  'x, y, z'

loop_
  _atom_site_type_symbol
  _atom_site_label
  _atom_site_symmetry_multiplicity
  _atom_site_fract_x
  _atom_site_fract_y
  _atom_site_fract_z
  _atom_site_occupancy
  F   F1        1.0  0.41300  0.41300  0.41300  1.0000
  F   F2        1.0  0.58700  0.58700  0.58700  1.0000
  H   H1        1.0  0.50000  0.50000  0.50000  1.0000
  Li  Li1       1.0  0.00000  0.00000  0.00000  1.0000
