data_image0
_chemical_formula_structural       Al2F2Na2O8P2
_chemical_formula_sum              "Al2 F2 Na2 O8 P2"
_cell_length_a       5.19146
_cell_length_b       5.19146
_cell_length_c       6.83742
_cell_angle_alpha    105.172
_cell_angle_beta     105.172
_cell_angle_gamma    104.41

_space_group_name_H-M_alt    "P 1"
_space_group_IT_number       1

loop_
  _space_group_symop_operation_xyz
  'x, y, z'

loop_
  _atom_site_type_symbol
  _atom_site_label
  _atom_site_symmetry_multiplicity
  _atom_site_fract_x
  _atom_site_fract_y
  _atom_site_fract_z
  _atom_site_occupancy
  Al  Al1       1.0  0.00000  0.00000  0.00000  1.0000
  Al  Al2       1.0  0.00000  0.00000  0.50000  1.0000
  F   F1        1.0  0.92900  0.07150  0.25000  1.0000
  F   F2        1.0  0.07150  0.92900  0.75000  1.0000
  Na  Na1       1.0  0.66700  0.33300  0.25000  1.0000
  Na  Na2       1.0  0.33300  0.66700  0.75000  1.0000
  O   O1        1.0  0.24000  0.37800  0.09280  1.0000
  O   O2        1.0  0.30900  0.88800  0.12200  1.0000
  O   O3        1.0  0.11200  0.69100  0.37800  1.0000
  O   O4        1.0  0.62200  0.76000  0.40700  1.0000
  O   O5        1.0  0.37800  0.24000  0.59300  1.0000
  O   O6        1.0  0.88800  0.30900  0.62200  1.0000
  O   O7        1.0  0.69100  0.11200  0.87800  1.0000
  O   O8        1.0  0.76000  0.62200  0.90700  1.0000
  P   P1        1.0  0.31800  0.68200  0.25000  1.0000
  P   P2        1.0  0.68200  0.31800  0.75000  1.0000
