data_image0
_chemical_formula_structural       B2O6P2Sr6
_chemical_formula_sum              "B2 O6 P2 Sr6"
_cell_length_a       5.26642
_cell_length_b       5.26629
_cell_length_c       12.5644
_cell_angle_alpha    90
_cell_angle_beta     90
_cell_angle_gamma    120.001

_space_group_name_H-M_alt    "P 1"
_space_group_IT_number       1

loop_
  _space_group_symop_operation_xyz
  'x, y, z'

loop_
  _atom_site_type_symbol
  _atom_site_label
  _atom_site_symmetry_multiplicity
  _atom_site_fract_x
  _atom_site_fract_y
  _atom_site_fract_z
  _atom_site_occupancy
  B   B1        1.0  0.66700  0.33300  0.25000  1.0000
  B   B2        1.0  0.33300  0.66700  0.75000  1.0000
  O   O1        1.0  0.51500  0.02980  0.25000  1.0000
  O   O2        1.0  0.51500  0.48500  0.25000  1.0000
  O   O3        1.0  0.97000  0.48500  0.25000  1.0000
  O   O4        1.0  0.02970  0.51500  0.75000  1.0000
  O   O5        1.0  0.48500  0.51500  0.75000  1.0000
  O   O6        1.0  0.48500  0.97000  0.75000  1.0000
  P   P1        1.0  0.00000  0.00000  0.00000  1.0000
  P   P2        1.0  0.00000  0.00000  0.50000  1.0000
  Sr  Sr1       1.0  0.33300  0.66700  0.09850  1.0000
  Sr  Sr2       1.0  0.00000  0.00000  0.25000  1.0000
  Sr  Sr3       1.0  0.33300  0.66700  0.40200  1.0000
  Sr  Sr4       1.0  0.66700  0.33300  0.59800  1.0000
  Sr  Sr5       1.0  0.00000  0.00001  0.75000  1.0000
  Sr  Sr6       1.0  0.66700  0.33300  0.90200  1.0000
