data_image0
_chemical_formula_structural       As4O8Rb4
_chemical_formula_sum              "As4 O8 Rb4"
_cell_length_a       7.19725
_cell_length_b       7.73883
_cell_length_c       5.49075
_cell_angle_alpha    90
_cell_angle_beta     90
_cell_angle_gamma    90

_space_group_name_H-M_alt    "P 1"
_space_group_IT_number       1

loop_
  _space_group_symop_operation_xyz
  'x, y, z'

loop_
  _atom_site_type_symbol
  _atom_site_label
  _atom_site_symmetry_multiplicity
  _atom_site_fract_x
  _atom_site_fract_y
  _atom_site_fract_z
  _atom_site_occupancy
  As  As1       1.0  0.86400  0.36600  0.25000  1.0000
  As  As2       1.0  0.13600  0.86600  0.25000  1.0000
  As  As3       1.0  0.86400  0.13400  0.75000  1.0000
  As  As4       1.0  0.13600  0.63400  0.75000  1.0000
  O   O1        1.0  0.73600  0.25000  0.00000  1.0000
  O   O2        1.0  0.26400  0.75000  0.00000  1.0000
  O   O3        1.0  0.26400  0.05330  0.25000  1.0000
  O   O4        1.0  0.73600  0.55300  0.25000  1.0000
  O   O5        1.0  0.73600  0.25000  0.50000  1.0000
  O   O6        1.0  0.26400  0.75000  0.50000  1.0000
  O   O7        1.0  0.26400  0.44700  0.75000  1.0000
  O   O8        1.0  0.73600  0.94700  0.75000  1.0000
  Rb  Rb1       1.0  0.36300  0.40200  0.25000  1.0000
  Rb  Rb2       1.0  0.63700  0.90200  0.25000  1.0000
  Rb  Rb3       1.0  0.36300  0.09790  0.75000  1.0000
  Rb  Rb4       1.0  0.63700  0.59800  0.75000  1.0000
