data_image0
_chemical_formula_structural       Er10Pb6
_chemical_formula_sum              "Er10 Pb6"
_cell_length_a       8.95435
_cell_length_b       8.95434
_cell_length_c       6.54102
_cell_angle_alpha    90
_cell_angle_beta     90
_cell_angle_gamma    119.999

_space_group_name_H-M_alt    "P 1"
_space_group_IT_number       1

loop_
  _space_group_symop_operation_xyz
  'x, y, z'

loop_
  _atom_site_type_symbol
  _atom_site_label
  _atom_site_symmetry_multiplicity
  _atom_site_fract_x
  _atom_site_fract_y
  _atom_site_fract_z
  _atom_site_occupancy
  Er  Er1       1.0  0.66700  0.33300  0.00000  1.0000
  Er  Er2       1.0  0.33300  0.66700  0.00000  1.0000
  Er  Er3       1.0  0.23600  0.00000  0.25000  1.0000
  Er  Er4       1.0  0.00000  0.23600  0.25000  1.0000
  Er  Er5       1.0  0.76400  0.76400  0.25000  1.0000
  Er  Er6       1.0  0.66700  0.33300  0.50000  1.0000
  Er  Er7       1.0  0.33300  0.66700  0.50000  1.0000
  Er  Er8       1.0  0.76400  0.00000  0.75000  1.0000
  Er  Er9       1.0  0.23600  0.23600  0.75000  1.0000
  Er  Er10      1.0  0.00000  0.76400  0.75000  1.0000
  Pb  Pb1       1.0  0.60500  0.00000  0.25000  1.0000
  Pb  Pb2       1.0  0.00000  0.60500  0.25000  1.0000
  Pb  Pb3       1.0  0.39500  0.39500  0.25000  1.0000
  Pb  Pb4       1.0  0.39500  0.00000  0.75000  1.0000
  Pb  Pb5       1.0  0.00000  0.39500  0.75000  1.0000
  Pb  Pb6       1.0  0.60500  0.60500  0.75000  1.0000
