data_image0
_chemical_formula_structural       C8Tm4W4
_chemical_formula_sum              "C8 Tm4 W4"
_cell_length_a       5.6778
_cell_length_b       3.32797
_cell_length_c       10.734
_cell_angle_alpha    90
_cell_angle_beta     90
_cell_angle_gamma    90

_space_group_name_H-M_alt    "P 1"
_space_group_IT_number       1

loop_
  _space_group_symop_operation_xyz
  'x, y, z'

loop_
  _atom_site_type_symbol
  _atom_site_label
  _atom_site_symmetry_multiplicity
  _atom_site_fract_x
  _atom_site_fract_y
  _atom_site_fract_z
  _atom_site_occupancy
  C   C1        1.0  0.73000  0.25000  0.01300  1.0000
  C   C2        1.0  0.84000  0.75000  0.24700  1.0000
  C   C3        1.0  0.34000  0.75000  0.25300  1.0000
  C   C4        1.0  0.23000  0.25000  0.48700  1.0000
  C   C5        1.0  0.77000  0.75000  0.51300  1.0000
  C   C6        1.0  0.66000  0.25000  0.74700  1.0000
  C   C7        1.0  0.16000  0.25000  0.75300  1.0000
  C   C8        1.0  0.27000  0.75000  0.98700  1.0000
  Tm  Tm1       1.0  0.08540  0.25000  0.13700  1.0000
  Tm  Tm2       1.0  0.58500  0.25000  0.36300  1.0000
  Tm  Tm3       1.0  0.41500  0.75000  0.63700  1.0000
  Tm  Tm4       1.0  0.91500  0.75000  0.86300  1.0000
  W   W1        1.0  0.59800  0.75000  0.11000  1.0000
  W   W2        1.0  0.09810  0.75000  0.39000  1.0000
  W   W3        1.0  0.90200  0.25000  0.61000  1.0000
  W   W4        1.0  0.40200  0.25000  0.89000  1.0000
