data_image0
_chemical_formula_structural       Si6Sm10
_chemical_formula_sum              "Si6 Sm10"
_cell_length_a       8.65971
_cell_length_b       8.65971
_cell_length_c       6.55801
_cell_angle_alpha    90
_cell_angle_beta     90
_cell_angle_gamma    119.999

_space_group_name_H-M_alt    "P 1"
_space_group_IT_number       1

loop_
  _space_group_symop_operation_xyz
  'x, y, z'

loop_
  _atom_site_type_symbol
  _atom_site_label
  _atom_site_symmetry_multiplicity
  _atom_site_fract_x
  _atom_site_fract_y
  _atom_site_fract_z
  _atom_site_occupancy
  Si  Si1       1.0  0.60700  0.00000  0.25000  1.0000
  Si  Si2       1.0  0.00000  0.60700  0.25000  1.0000
  Si  Si3       1.0  0.39300  0.39300  0.25000  1.0000
  Si  Si4       1.0  0.39300  0.00000  0.75000  1.0000
  Si  Si5       1.0  0.00000  0.39300  0.75000  1.0000
  Si  Si6       1.0  0.60700  0.60700  0.75000  1.0000
  Sm  Sm1       1.0  0.66700  0.33300  0.00000  1.0000
  Sm  Sm2       1.0  0.33300  0.66700  0.00000  1.0000
  Sm  Sm3       1.0  0.75400  0.75400  0.25000  1.0000
  Sm  Sm4       1.0  0.24600  0.00000  0.25000  1.0000
  Sm  Sm5       1.0  0.00000  0.24600  0.25000  1.0000
  Sm  Sm6       1.0  0.66700  0.33300  0.50000  1.0000
  Sm  Sm7       1.0  0.33300  0.66700  0.50000  1.0000
  Sm  Sm8       1.0  0.24600  0.24600  0.75000  1.0000
  Sm  Sm9       1.0  0.75400  1.00000  0.75000  1.0000
  Sm  Sm10      1.0  0.00000  0.75400  0.75000  1.0000
