data_image0
_chemical_formula_structural       C4H6Na2O10
_chemical_formula_sum              "C4 H6 Na2 O10"
_cell_length_a       6.21268
_cell_length_b       6.59179
_cell_length_c       5.59546
_cell_angle_alpha    85.4407
_cell_angle_beta     110.995
_cell_angle_gamma    104.768

_space_group_name_H-M_alt    "P 1"
_space_group_IT_number       1

loop_
  _space_group_symop_operation_xyz
  'x, y, z'

loop_
  _atom_site_type_symbol
  _atom_site_label
  _atom_site_symmetry_multiplicity
  _atom_site_fract_x
  _atom_site_fract_y
  _atom_site_fract_z
  _atom_site_occupancy
  C   C1        1.0  0.25900  0.54000  0.35300  1.0000
  C   C2        1.0  0.72200  0.35900  0.39800  1.0000
  C   C3        1.0  0.27800  0.64100  0.60200  1.0000
  C   C4        1.0  0.74100  0.46000  0.64700  1.0000
  H   H1        1.0  0.74500  0.39700  0.00176  1.0000
  H   H2        1.0  0.80600  0.77000  0.23900  1.0000
  H   H3        1.0  0.78600  0.00348  0.26100  1.0000
  H   H4        1.0  0.21400  0.99700  0.73900  1.0000
  H   H5        1.0  0.19400  0.23000  0.76100  1.0000
  H   H6        1.0  0.25500  0.60300  0.99800  1.0000
  Na  Na1       1.0  0.25100  0.02570  0.23900  1.0000
  Na  Na2       1.0  0.74900  0.97400  0.76100  1.0000
  O   O1        1.0  0.26600  0.67600  0.17000  1.0000
  O   O2        1.0  0.85300  0.91600  0.18700  1.0000
  O   O3        1.0  0.76300  0.48800  0.22900  1.0000
  O   O4        1.0  0.24400  0.35100  0.34100  1.0000
  O   O5        1.0  0.66700  0.16200  0.37900  1.0000
  O   O6        1.0  0.33300  0.83800  0.62100  1.0000
  O   O7        1.0  0.75600  0.64900  0.65900  1.0000
  O   O8        1.0  0.23700  0.51200  0.77100  1.0000
  O   O9        1.0  0.14700  0.08450  0.81300  1.0000
  O   O10       1.0  0.73400  0.32400  0.83000  1.0000
