data_image0
_chemical_formula_structural       As2C6H12N2
_chemical_formula_sum              "As2 C6 H12 N2"
_cell_length_a       6.16065
_cell_length_b       6.22431
_cell_length_c       7.88567
_cell_angle_alpha    101.701
_cell_angle_beta     110.54
_cell_angle_gamma    60.1509

_space_group_name_H-M_alt    "P 1"
_space_group_IT_number       1

loop_
  _space_group_symop_operation_xyz
  'x, y, z'

loop_
  _atom_site_type_symbol
  _atom_site_label
  _atom_site_symmetry_multiplicity
  _atom_site_fract_x
  _atom_site_fract_y
  _atom_site_fract_z
  _atom_site_occupancy
  As  As1       1.0  0.88400  0.78800  0.36200  1.0000
  As  As2       1.0  0.11600  0.21200  0.63800  1.0000
  C   C1        1.0  0.96700  0.86100  0.16600  1.0000
  C   C2        1.0  0.70100  0.59700  0.21100  1.0000
  C   C3        1.0  0.55800  0.09900  0.33800  1.0000
  C   C4        1.0  0.44200  0.90100  0.66200  1.0000
  C   C5        1.0  0.29900  0.40300  0.78900  1.0000
  C   C6        1.0  0.03300  0.13900  0.83400  1.0000
  H   H1        1.0  0.79000  0.95600  0.05560  1.0000
  H   H2        1.0  0.53700  0.70600  0.09890  1.0000
  H   H3        1.0  0.09710  0.68000  0.11700  1.0000
  H   H4        1.0  0.84900  0.43300  0.15900  1.0000
  H   H5        1.0  0.06970  0.97200  0.22300  1.0000
  H   H6        1.0  0.63300  0.54100  0.29700  1.0000
  H   H7        1.0  0.36700  0.45900  0.70300  1.0000
  H   H8        1.0  0.93000  0.02750  0.77700  1.0000
  H   H9        1.0  0.15100  0.56700  0.84100  1.0000
  H   H10       1.0  0.90300  0.32000  0.88300  1.0000
  H   H11       1.0  0.46300  0.29400  0.90100  1.0000
  H   H12       1.0  0.21000  0.04370  0.94400  1.0000
  N   N1        1.0  0.36400  0.28500  0.33100  1.0000
  N   N2        1.0  0.63600  0.71500  0.66900  1.0000
