data_image0
_chemical_formula_structural       C4H4O10Rb4
_chemical_formula_sum              "C4 H4 O10 Rb4"
_cell_length_a       5.67337
_cell_length_b       5.67337
_cell_length_c       10.7065
_cell_angle_alpha    94.4107
_cell_angle_beta     104.296
_cell_angle_gamma    112.884

_space_group_name_H-M_alt    "P 1"
_space_group_IT_number       1

loop_
  _space_group_symop_operation_xyz
  'x, y, z'

loop_
  _atom_site_type_symbol
  _atom_site_label
  _atom_site_symmetry_multiplicity
  _atom_site_fract_x
  _atom_site_fract_y
  _atom_site_fract_z
  _atom_site_occupancy
  C   C1        1.0  0.49400  0.91400  0.05430  1.0000
  C   C2        1.0  0.36000  0.43900  0.44600  1.0000
  C   C3        1.0  0.64000  0.56100  0.55400  1.0000
  C   C4        1.0  0.50600  0.08590  0.94600  1.0000
  H   H1        1.0  0.76700  0.65700  0.19800  1.0000
  H   H2        1.0  0.95900  0.56900  0.30200  1.0000
  H   H3        1.0  0.04100  0.43100  0.69800  1.0000
  H   H4        1.0  0.23300  0.34300  0.80200  1.0000
  O   O1        1.0  0.69300  0.85800  0.09470  1.0000
  O   O2        1.0  0.29100  0.84600  0.09550  1.0000
  O   O3        1.0  0.77000  0.52000  0.25000  1.0000
  O   O4        1.0  0.25000  0.19500  0.40500  1.0000
  O   O5        1.0  0.26300  0.59800  0.40500  1.0000
  O   O6        1.0  0.73700  0.40200  0.59500  1.0000
  O   O7        1.0  0.75000  0.80500  0.59500  1.0000
  O   O8        1.0  0.23000  0.48000  0.75000  1.0000
  O   O9        1.0  0.70900  0.15400  0.90500  1.0000
  O   O10       1.0  0.30700  0.14200  0.90500  1.0000
  Rb  Rb1       1.0  0.18200  0.31100  0.13000  1.0000
  Rb  Rb2       1.0  0.68100  0.05160  0.37000  1.0000
  Rb  Rb3       1.0  0.31900  0.94800  0.63000  1.0000
  Rb  Rb4       1.0  0.81800  0.68900  0.87000  1.0000
