data_image0
_chemical_formula_structural       B6C2H14O2
_chemical_formula_sum              "B6 C2 H14 O2"
_cell_length_a       8.12462
_cell_length_b       5.50259
_cell_length_c       5.61514
_cell_angle_alpha    101.731
_cell_angle_beta     75.8116
_cell_angle_gamma    105.298

_space_group_name_H-M_alt    "P 1"
_space_group_IT_number       1

loop_
  _space_group_symop_operation_xyz
  'x, y, z'

loop_
  _atom_site_type_symbol
  _atom_site_label
  _atom_site_symmetry_multiplicity
  _atom_site_fract_x
  _atom_site_fract_y
  _atom_site_fract_z
  _atom_site_occupancy
  B   B1        1.0  0.35900  0.16500  0.25600  1.0000
  B   B2        1.0  0.21800  0.39000  0.38100  1.0000
  B   B3        1.0  0.75800  0.78900  0.41400  1.0000
  B   B4        1.0  0.23900  0.19900  0.57800  1.0000
  B   B5        1.0  0.76400  0.58600  0.61200  1.0000
  B   B6        1.0  0.64400  0.83700  0.73600  1.0000
  C   C1        1.0  0.25200  0.94500  0.10600  1.0000
  C   C2        1.0  0.75400  0.05220  0.88500  1.0000
  H   H1        1.0  0.44700  0.31400  0.11800  1.0000
  H   H2        1.0  0.11400  0.34300  0.24800  1.0000
  H   H3        1.0  0.65900  0.70800  0.27400  1.0000
  H   H4        1.0  0.45300  0.07900  0.33800  1.0000
  H   H5        1.0  0.86400  0.98400  0.37900  1.0000
  H   H6        1.0  0.85600  0.62700  0.38800  1.0000
  H   H7        1.0  0.29700  0.60600  0.41900  1.0000
  H   H8        1.0  0.11500  0.31500  0.58600  1.0000
  H   H9        1.0  0.67200  0.37600  0.59100  1.0000
  H   H10       1.0  0.15700  0.98900  0.61100  1.0000
  H   H11       1.0  0.54000  0.92100  0.67500  1.0000
  H   H12       1.0  0.32700  0.31600  0.72500  1.0000
  H   H13       1.0  0.87500  0.62800  0.73200  1.0000
  H   H14       1.0  0.56500  0.68900  0.88200  1.0000
  O   O1        1.0  0.83600  0.21200  0.00037  1.0000
  O   O2        1.0  0.16700  0.78300  0.99800  1.0000
