data_image0
_chemical_formula_structural       C4H4N4O4Pb4S4
_chemical_formula_sum              "C4 H4 N4 O4 Pb4 S4"
_cell_length_a       11.1526
_cell_length_b       8.58215
_cell_length_c       4.13621
_cell_angle_alpha    90
_cell_angle_beta     90
_cell_angle_gamma    90

_space_group_name_H-M_alt    "P 1"
_space_group_IT_number       1

loop_
  _space_group_symop_operation_xyz
  'x, y, z'

loop_
  _atom_site_type_symbol
  _atom_site_label
  _atom_site_symmetry_multiplicity
  _atom_site_fract_x
  _atom_site_fract_y
  _atom_site_fract_z
  _atom_site_occupancy
  C   C1        1.0  0.87500  0.44800  0.25000  1.0000
  C   C2        1.0  0.62500  0.94800  0.25000  1.0000
  C   C3        1.0  0.37500  0.05180  0.75000  1.0000
  C   C4        1.0  0.12500  0.55200  0.75000  1.0000
  H   H1        1.0  0.43800  0.29800  0.25000  1.0000
  H   H2        1.0  0.06210  0.79800  0.25000  1.0000
  H   H3        1.0  0.93800  0.20200  0.75000  1.0000
  H   H4        1.0  0.56200  0.70200  0.75000  1.0000
  N   N1        1.0  0.94600  0.34700  0.25000  1.0000
  N   N2        1.0  0.55400  0.84700  0.25000  1.0000
  N   N3        1.0  0.44600  0.15300  0.75000  1.0000
  N   N4        1.0  0.05370  0.65300  0.75000  1.0000
  O   O1        1.0  0.49300  0.38700  0.25000  1.0000
  O   O2        1.0  0.00718  0.88700  0.25000  1.0000
  O   O3        1.0  0.99300  0.11300  0.75000  1.0000
  O   O4        1.0  0.50700  0.61300  0.75000  1.0000
  Pb  Pb1       1.0  0.10900  0.13700  0.25000  1.0000
  Pb  Pb2       1.0  0.39100  0.63700  0.25000  1.0000
  Pb  Pb3       1.0  0.60900  0.36300  0.75000  1.0000
  Pb  Pb4       1.0  0.89100  0.86300  0.75000  1.0000
  S   S1        1.0  0.72900  0.08310  0.25000  1.0000
  S   S2        1.0  0.77100  0.58300  0.25000  1.0000
  S   S3        1.0  0.22900  0.41700  0.75000  1.0000
  S   S4        1.0  0.27100  0.91700  0.75000  1.0000
