data_image0
_chemical_formula_structural       C2H9KNiO10
_chemical_formula_sum              "C2 H9 K1 Ni1 O10"
_cell_length_a       5.22702
_cell_length_b       6.54817
_cell_length_c       6.8467
_cell_angle_alpha    118.037
_cell_angle_beta     89.6362
_cell_angle_gamma    107.486

_space_group_name_H-M_alt    "P 1"
_space_group_IT_number       1

loop_
  _space_group_symop_operation_xyz
  'x, y, z'

loop_
  _atom_site_type_symbol
  _atom_site_label
  _atom_site_symmetry_multiplicity
  _atom_site_fract_x
  _atom_site_fract_y
  _atom_site_fract_z
  _atom_site_occupancy
  C   C1        1.0  0.37300  0.69400  0.20600  1.0000
  C   C2        1.0  0.62700  0.30600  0.79400  1.0000
  H   H1        1.0  0.00000  0.50000  0.00000  1.0000
  H   H2        1.0  0.64300  0.25300  0.12300  1.0000
  H   H3        1.0  0.58400  0.08230  0.24600  1.0000
  H   H4        1.0  0.80500  0.79700  0.40500  1.0000
  H   H5        1.0  0.00186  0.65600  0.42100  1.0000
  H   H6        1.0  0.99800  0.34400  0.57900  1.0000
  H   H7        1.0  0.19500  0.20300  0.59500  1.0000
  H   H8        1.0  0.41600  0.91800  0.75400  1.0000
  H   H9        1.0  0.35700  0.74700  0.87700  1.0000
  K   K1        1.0  0.00000  0.00000  0.00000  1.0000
  Ni  Ni1       1.0  0.50000  0.50000  0.50000  1.0000
  O   O1        1.0  0.20000  0.67700  0.05420  1.0000
  O   O2        1.0  0.53400  0.20900  0.22700  1.0000
  O   O3        1.0  0.61600  0.84200  0.25300  1.0000
  O   O4        1.0  0.28100  0.56000  0.29700  1.0000
  O   O5        1.0  0.86800  0.73400  0.49800  1.0000
  O   O6        1.0  0.13200  0.26600  0.50200  1.0000
  O   O7        1.0  0.71900  0.44000  0.70300  1.0000
  O   O8        1.0  0.38400  0.15800  0.74700  1.0000
  O   O9        1.0  0.46600  0.79100  0.77300  1.0000
  O   O10       1.0  0.80000  0.32300  0.94600  1.0000
