data_image0
_chemical_formula_structural       C4H16I2N2
_chemical_formula_sum              "C4 H16 I2 N2"
_cell_length_a       5.44935
_cell_length_b       7.32409
_cell_length_c       7.32409
_cell_angle_alpha    95.7844
_cell_angle_beta     105.14
_cell_angle_gamma    74.8602

_space_group_name_H-M_alt    "P 1"
_space_group_IT_number       1

loop_
  _space_group_symop_operation_xyz
  'x, y, z'

loop_
  _atom_site_type_symbol
  _atom_site_label
  _atom_site_symmetry_multiplicity
  _atom_site_fract_x
  _atom_site_fract_y
  _atom_site_fract_z
  _atom_site_occupancy
  C   C1        1.0  0.63700  0.36600  0.22600  1.0000
  C   C2        1.0  0.36300  0.22600  0.36600  1.0000
  C   C3        1.0  0.63700  0.77400  0.63400  1.0000
  C   C4        1.0  0.36300  0.63400  0.77400  1.0000
  H   H1        1.0  0.36300  0.21600  0.08060  1.0000
  H   H2        1.0  0.73500  0.34600  0.10900  1.0000
  H   H3        1.0  0.63700  0.08060  0.21600  1.0000
  H   H4        1.0  0.49300  0.50200  0.21700  1.0000
  H   H5        1.0  0.26500  0.10900  0.34600  1.0000
  H   H6        1.0  0.21700  0.36200  0.35700  1.0000
  H   H7        1.0  0.78300  0.35700  0.36200  1.0000
  H   H8        1.0  0.49300  0.78300  0.49800  1.0000
  H   H9        1.0  0.50700  0.21700  0.50200  1.0000
  H   H10       1.0  0.21700  0.64300  0.63800  1.0000
  H   H11       1.0  0.78300  0.63800  0.64300  1.0000
  H   H12       1.0  0.73500  0.89100  0.65400  1.0000
  H   H13       1.0  0.50700  0.49800  0.78300  1.0000
  H   H14       1.0  0.36300  0.91900  0.78400  1.0000
  H   H15       1.0  0.26500  0.65400  0.89100  1.0000
  H   H16       1.0  0.63700  0.78400  0.91900  1.0000
  I   I1        1.0  0.96400  0.78100  0.21900  1.0000
  I   I2        1.0  0.03640  0.21900  0.78100  1.0000
  N   N1        1.0  0.50000  0.21300  0.21300  1.0000
  N   N2        1.0  0.50000  0.78700  0.78700  1.0000
