data_image0
_chemical_formula_structural       C4H4O12Rb4
_chemical_formula_sum              "C4 H4 O12 Rb4"
_cell_length_a       5.60913
_cell_length_b       5.60913
_cell_length_c       10.9701
_cell_angle_alpha    104.077
_cell_angle_beta     75.9229
_cell_angle_gamma    107.509

_space_group_name_H-M_alt    "P 1"
_space_group_IT_number       1

loop_
  _space_group_symop_operation_xyz
  'x, y, z'

loop_
  _atom_site_type_symbol
  _atom_site_label
  _atom_site_symmetry_multiplicity
  _atom_site_fract_x
  _atom_site_fract_y
  _atom_site_fract_z
  _atom_site_occupancy
  C   C1        1.0  0.08850  0.54500  0.05060  1.0000
  C   C2        1.0  0.54500  0.08850  0.44900  1.0000
  C   C3        1.0  0.45500  0.91100  0.55100  1.0000
  C   C4        1.0  0.91100  0.45500  0.94900  1.0000
  H   H1        1.0  0.37200  0.41800  0.14700  1.0000
  H   H2        1.0  0.41800  0.37200  0.35300  1.0000
  H   H3        1.0  0.58200  0.62800  0.64700  1.0000
  H   H4        1.0  0.62800  0.58200  0.85300  1.0000
  O   O1        1.0  0.13600  0.36900  0.08810  1.0000
  O   O2        1.0  0.16800  0.78000  0.08960  1.0000
  O   O3        1.0  0.53500  0.44700  0.18200  1.0000
  O   O4        1.0  0.44700  0.53500  0.31800  1.0000
  O   O5        1.0  0.78000  0.16800  0.41000  1.0000
  O   O6        1.0  0.36900  0.13600  0.41200  1.0000
  O   O7        1.0  0.63100  0.86400  0.58800  1.0000
  O   O8        1.0  0.22000  0.83200  0.59000  1.0000
  O   O9        1.0  0.55300  0.46500  0.68200  1.0000
  O   O10       1.0  0.46500  0.55300  0.81800  1.0000
  O   O11       1.0  0.83200  0.22000  0.91000  1.0000
  O   O12       1.0  0.86400  0.63100  0.91200  1.0000
  Rb  Rb1       1.0  0.69400  0.97500  0.13700  1.0000
  Rb  Rb2       1.0  0.97500  0.69400  0.36300  1.0000
  Rb  Rb3       1.0  0.02470  0.30600  0.63700  1.0000
  Rb  Rb4       1.0  0.30600  0.02470  0.86300  1.0000
