data_image0
_chemical_formula_structural       C8H6Na2O10
_chemical_formula_sum              "C8 H6 Na2 O10"
_cell_length_a       3.4844
_cell_length_b       8.00684
_cell_length_c       9.14295
_cell_angle_alpha    90
_cell_angle_beta     96.0595
_cell_angle_gamma    90

_space_group_name_H-M_alt    "P 1"
_space_group_IT_number       1

loop_
  _space_group_symop_operation_xyz
  'x, y, z'

loop_
  _atom_site_type_symbol
  _atom_site_label
  _atom_site_symmetry_multiplicity
  _atom_site_fract_x
  _atom_site_fract_y
  _atom_site_fract_z
  _atom_site_occupancy
  C   C1        1.0  0.09380  0.73800  0.14000  1.0000
  C   C2        1.0  0.08230  0.55700  0.14700  1.0000
  C   C3        1.0  0.32900  0.55300  0.28200  1.0000
  C   C4        1.0  0.33900  0.74000  0.28600  1.0000
  C   C5        1.0  0.09380  0.26200  0.64000  1.0000
  C   C6        1.0  0.08230  0.44300  0.64700  1.0000
  C   C7        1.0  0.32900  0.44700  0.78200  1.0000
  C   C8        1.0  0.33900  0.26000  0.78600  1.0000
  H   H1        1.0  0.87700  0.23000  0.12600  1.0000
  H   H2        1.0  0.91600  0.03500  0.12900  1.0000
  H   H3        1.0  0.71700  0.50200  0.47000  1.0000
  H   H4        1.0  0.87700  0.77000  0.62600  1.0000
  H   H5        1.0  0.91600  0.96500  0.62900  1.0000
  H   H6        1.0  0.71700  0.49800  0.97000  1.0000
  Na  Na1       1.0  0.44100  0.13500  0.35900  1.0000
  Na  Na2       1.0  0.44100  0.86500  0.85900  1.0000
  O   O1        1.0  0.96000  0.84400  0.04760  1.0000
  O   O2        1.0  0.91300  0.44200  0.06340  1.0000
  O   O3        1.0  0.89300  0.13400  0.19300  1.0000
  O   O4        1.0  0.48600  0.43800  0.36400  1.0000
  O   O5        1.0  0.48800  0.84600  0.37100  1.0000
  O   O6        1.0  0.96000  0.15600  0.54800  1.0000
  O   O7        1.0  0.91300  0.55800  0.56300  1.0000
  O   O8        1.0  0.89300  0.86600  0.69300  1.0000
  O   O9        1.0  0.48600  0.56200  0.86400  1.0000
  O   O10       1.0  0.48800  0.15400  0.87100  1.0000
