data_image0
_chemical_formula_structural       C4H12O8S2
_chemical_formula_sum              "C4 H12 O8 S2"
_cell_length_a       5.68584
_cell_length_b       6.52493
_cell_length_c       7.48092
_cell_angle_alpha    106.307
_cell_angle_beta     67.6649
_cell_angle_gamma    115.83

_space_group_name_H-M_alt    "P 1"
_space_group_IT_number       1

loop_
  _space_group_symop_operation_xyz
  'x, y, z'

loop_
  _atom_site_type_symbol
  _atom_site_label
  _atom_site_symmetry_multiplicity
  _atom_site_fract_x
  _atom_site_fract_y
  _atom_site_fract_z
  _atom_site_occupancy
  C   C1        1.0  0.23100  0.93600  0.20600  1.0000
  C   C2        1.0  0.50100  0.56400  0.29400  1.0000
  C   C3        1.0  0.49900  0.43600  0.70600  1.0000
  C   C4        1.0  0.76900  0.06400  0.79400  1.0000
  H   H1        1.0  0.26700  0.79800  0.09020  1.0000
  H   H2        1.0  0.49200  0.63500  0.18200  1.0000
  H   H3        1.0  0.64200  0.47200  0.23100  1.0000
  H   H4        1.0  0.40100  0.02820  0.26900  1.0000
  H   H5        1.0  0.03870  0.86500  0.31800  1.0000
  H   H6        1.0  0.55900  0.70200  0.41000  1.0000
  H   H7        1.0  0.44100  0.29800  0.59000  1.0000
  H   H8        1.0  0.96100  0.13500  0.68200  1.0000
  H   H9        1.0  0.59900  0.97200  0.73100  1.0000
  H   H10       1.0  0.35800  0.52800  0.76900  1.0000
  H   H11       1.0  0.50800  0.36500  0.81800  1.0000
  H   H12       1.0  0.73300  0.20200  0.91000  1.0000
  O   O1        1.0  0.20900  0.09230  0.11100  1.0000
  O   O2        1.0  0.05010  0.38100  0.12300  1.0000
  O   O3        1.0  0.79200  0.11900  0.37700  1.0000
  O   O4        1.0  0.22800  0.40800  0.38900  1.0000
  O   O5        1.0  0.77200  0.59200  0.61100  1.0000
  O   O6        1.0  0.20800  0.88100  0.62300  1.0000
  O   O7        1.0  0.95000  0.61900  0.87700  1.0000
  O   O8        1.0  0.79100  0.90800  0.88900  1.0000
  S   S1        1.0  0.04560  0.25000  0.25000  1.0000
  S   S2        1.0  0.95400  0.75000  0.75000  1.0000
