data_image0
_chemical_formula_structural       C4H4K4N8O8
_chemical_formula_sum              "C4 H4 K4 N8 O8"
_cell_length_a       7.84843
_cell_length_b       7.84843
_cell_length_c       7.84843
_cell_angle_alpha    110.999
_cell_angle_beta     106.457
_cell_angle_gamma    110.999

_space_group_name_H-M_alt    "P 1"
_space_group_IT_number       1

loop_
  _space_group_symop_operation_xyz
  'x, y, z'

loop_
  _atom_site_type_symbol
  _atom_site_label
  _atom_site_symmetry_multiplicity
  _atom_site_fract_x
  _atom_site_fract_y
  _atom_site_fract_z
  _atom_site_occupancy
  C   C1        1.0  0.37500  0.21200  0.08730  1.0000
  C   C2        1.0  0.91300  0.28800  0.12500  1.0000
  C   C3        1.0  0.87500  0.78800  0.16300  1.0000
  C   C4        1.0  0.83700  0.71200  0.62500  1.0000
  H   H1        1.0  0.87500  0.66400  0.03930  1.0000
  H   H2        1.0  0.78900  0.16400  0.12500  1.0000
  H   H3        1.0  0.37500  0.33600  0.21100  1.0000
  H   H4        1.0  0.96100  0.83600  0.62500  1.0000
  K   K1        1.0  0.30100  0.67600  0.12500  1.0000
  K   K2        1.0  0.87500  0.17600  0.55100  1.0000
  K   K3        1.0  0.44900  0.32400  0.62500  1.0000
  K   K4        1.0  0.37500  0.82400  0.69900  1.0000
  N   N1        1.0  0.44100  0.08420  0.11700  1.0000
  N   N2        1.0  0.71700  0.82500  0.13300  1.0000
  N   N3        1.0  0.10700  0.41600  0.28300  1.0000
  N   N4        1.0  0.03260  0.91600  0.35700  1.0000
  N   N5        1.0  0.64300  0.67500  0.55900  1.0000
  N   N6        1.0  0.86700  0.58400  0.69100  1.0000
  N   N7        1.0  0.30900  0.17500  0.89300  1.0000
  N   N8        1.0  0.88300  0.32500  0.96700  1.0000
  O   O1        1.0  0.50300  0.11400  0.30000  1.0000
  O   O2        1.0  0.18600  0.88600  0.38900  1.0000
  O   O3        1.0  0.13900  0.38600  0.43600  1.0000
  O   O4        1.0  0.61100  0.79700  0.49700  1.0000
  O   O5        1.0  0.05050  0.61400  0.75300  1.0000
  O   O6        1.0  0.70000  0.20300  0.81400  1.0000
  O   O7        1.0  0.24700  0.29700  0.86100  1.0000
  O   O8        1.0  0.56400  0.70300  0.95000  1.0000
