data_image0
_chemical_formula_structural       C4H12N4O4Si4
_chemical_formula_sum              "C4 H12 N4 O4 Si4"
_cell_length_a       7.70093
_cell_length_b       6.22706
_cell_length_c       6.98485
_cell_angle_alpha    90
_cell_angle_beta     90
_cell_angle_gamma    90

_space_group_name_H-M_alt    "P 1"
_space_group_IT_number       1

loop_
  _space_group_symop_operation_xyz
  'x, y, z'

loop_
  _atom_site_type_symbol
  _atom_site_label
  _atom_site_symmetry_multiplicity
  _atom_site_fract_x
  _atom_site_fract_y
  _atom_site_fract_z
  _atom_site_occupancy
  C   C1        1.0  0.00289  0.75000  0.10900  1.0000
  C   C2        1.0  0.50300  0.75000  0.39100  1.0000
  C   C3        1.0  0.49700  0.25000  0.60900  1.0000
  C   C4        1.0  0.99700  0.25000  0.89100  1.0000
  H   H1        1.0  0.70500  0.25000  0.12500  1.0000
  H   H2        1.0  0.36700  0.05390  0.12700  1.0000
  H   H3        1.0  0.36700  0.44600  0.12700  1.0000
  H   H4        1.0  0.86700  0.05390  0.37300  1.0000
  H   H5        1.0  0.86700  0.44600  0.37300  1.0000
  H   H6        1.0  0.20500  0.25000  0.37500  1.0000
  H   H7        1.0  0.79500  0.75000  0.62500  1.0000
  H   H8        1.0  0.13300  0.55400  0.62700  1.0000
  H   H9        1.0  0.13300  0.94600  0.62700  1.0000
  H   H10       1.0  0.63300  0.55400  0.87300  1.0000
  H   H11       1.0  0.63300  0.94600  0.87300  1.0000
  H   H12       1.0  0.29500  0.75000  0.87500  1.0000
  N   N1        1.0  0.07970  0.25000  0.03690  1.0000
  N   N2        1.0  0.58000  0.25000  0.46300  1.0000
  N   N3        1.0  0.42000  0.75000  0.53700  1.0000
  N   N4        1.0  0.92000  0.75000  0.96300  1.0000
  O   O1        1.0  0.09390  0.75000  0.24600  1.0000
  O   O2        1.0  0.59400  0.75000  0.25400  1.0000
  O   O3        1.0  0.40600  0.25000  0.74600  1.0000
  O   O4        1.0  0.90600  0.25000  0.75400  1.0000
  Si  Si1       1.0  0.26800  0.25000  0.17500  1.0000
  Si  Si2       1.0  0.76800  0.25000  0.32500  1.0000
  Si  Si3       1.0  0.23200  0.75000  0.67500  1.0000
  Si  Si4       1.0  0.73200  0.75000  0.82500  1.0000
