data_image0
_chemical_formula_structural       Ag4C4H12N8
_chemical_formula_sum              "Ag4 C4 H12 N8"
_cell_length_a       3.7899
_cell_length_b       15.5841
_cell_length_c       5.20035
_cell_angle_alpha    90
_cell_angle_beta     90
_cell_angle_gamma    90

_space_group_name_H-M_alt    "P 1"
_space_group_IT_number       1

loop_
  _space_group_symop_operation_xyz
  'x, y, z'

loop_
  _atom_site_type_symbol
  _atom_site_label
  _atom_site_symmetry_multiplicity
  _atom_site_fract_x
  _atom_site_fract_y
  _atom_site_fract_z
  _atom_site_occupancy
  Ag  Ag1       1.0  0.23900  0.02460  0.25000  1.0000
  Ag  Ag2       1.0  0.76100  0.52500  0.25000  1.0000
  Ag  Ag3       1.0  0.23900  0.47500  0.75000  1.0000
  Ag  Ag4       1.0  0.76100  0.97500  0.75000  1.0000
  C   C1        1.0  0.83800  0.39600  0.25000  1.0000
  C   C2        1.0  0.16200  0.89600  0.25000  1.0000
  C   C3        1.0  0.83800  0.10400  0.75000  1.0000
  C   C4        1.0  0.16200  0.60400  0.75000  1.0000
  H   H1        1.0  0.49400  0.17500  0.09100  1.0000
  H   H2        1.0  0.50600  0.67500  0.09100  1.0000
  H   H3        1.0  0.13000  0.19900  0.25000  1.0000
  H   H4        1.0  0.87000  0.69900  0.25000  1.0000
  H   H5        1.0  0.49400  0.17500  0.40900  1.0000
  H   H6        1.0  0.50600  0.67500  0.40900  1.0000
  H   H7        1.0  0.49400  0.32500  0.59100  1.0000
  H   H8        1.0  0.50600  0.82500  0.59100  1.0000
  H   H9        1.0  0.13000  0.30100  0.75000  1.0000
  H   H10       1.0  0.87000  0.80100  0.75000  1.0000
  H   H11       1.0  0.49400  0.32500  0.90900  1.0000
  H   H12       1.0  0.50600  0.82500  0.90900  1.0000
  N   N1        1.0  0.34800  0.15900  0.25000  1.0000
  N   N2        1.0  0.86500  0.32100  0.25000  1.0000
  N   N3        1.0  0.65200  0.65900  0.25000  1.0000
  N   N4        1.0  0.13500  0.82100  0.25000  1.0000
  N   N5        1.0  0.86500  0.17900  0.75000  1.0000
  N   N6        1.0  0.34800  0.34100  0.75000  1.0000
  N   N7        1.0  0.13500  0.67900  0.75000  1.0000
  N   N8        1.0  0.65200  0.84100  0.75000  1.0000
