data_image0
_chemical_formula_structural       Fe4NdSb12
_chemical_formula_sum              "Fe4 Nd1 Sb12"
_cell_length_a       7.94005
_cell_length_b       7.94005
_cell_length_c       7.94005
_cell_angle_alpha    109.471
_cell_angle_beta     109.471
_cell_angle_gamma    109.471

_space_group_name_H-M_alt    "P 1"
_space_group_IT_number       1

loop_
  _space_group_symop_operation_xyz
  'x, y, z'

loop_
  _atom_site_type_symbol
  _atom_site_label
  _atom_site_symmetry_multiplicity
  _atom_site_fract_x
  _atom_site_fract_y
  _atom_site_fract_z
  _atom_site_occupancy
  Fe  Fe1       1.0  0.50000  0.00000  0.00000  1.0000
  Fe  Fe2       1.0  0.00000  0.50000  0.00000  1.0000
  Fe  Fe3       1.0  0.00000  0.00000  0.50000  1.0000
  Fe  Fe4       1.0  0.50000  0.50000  0.50000  1.0000
  Nd  Nd1       1.0  0.00000  0.00000  0.00000  1.0000
  Sb  Sb1       1.0  0.33400  0.49700  0.16300  1.0000
  Sb  Sb2       1.0  0.66600  0.82800  0.16300  1.0000
  Sb  Sb3       1.0  0.83700  0.33400  0.17200  1.0000
  Sb  Sb4       1.0  0.17200  0.83700  0.33400  1.0000
  Sb  Sb5       1.0  0.49700  0.16300  0.33400  1.0000
  Sb  Sb6       1.0  0.16300  0.33400  0.49700  1.0000
  Sb  Sb7       1.0  0.83700  0.66600  0.50300  1.0000
  Sb  Sb8       1.0  0.82800  0.16300  0.66600  1.0000
  Sb  Sb9       1.0  0.50300  0.83700  0.66600  1.0000
  Sb  Sb10      1.0  0.16300  0.66600  0.82800  1.0000
  Sb  Sb11      1.0  0.33400  0.17200  0.83700  1.0000
  Sb  Sb12      1.0  0.66600  0.50300  0.83700  1.0000
