data_image0
_chemical_formula_structural       O10Sr4V3
_chemical_formula_sum              "O10 Sr4 V3"
_cell_length_a       3.88131
_cell_length_b       3.88131
_cell_length_c       14.1172
_cell_angle_alpha    97.9013
_cell_angle_beta     97.9013
_cell_angle_gamma    90

_space_group_name_H-M_alt    "P 1"
_space_group_IT_number       1

loop_
  _space_group_symop_operation_xyz
  'x, y, z'

loop_
  _atom_site_type_symbol
  _atom_site_label
  _atom_site_symmetry_multiplicity
  _atom_site_fract_x
  _atom_site_fract_y
  _atom_site_fract_z
  _atom_site_occupancy
  O   O1        1.0  0.50000  0.00000  0.00000  1.0000
  O   O2        1.0  0.00000  0.50000  0.00000  1.0000
  O   O3        1.0  0.07140  0.07140  0.14300  1.0000
  O   O4        1.0  0.63900  0.13900  0.27900  1.0000
  O   O5        1.0  0.13900  0.63900  0.27900  1.0000
  O   O6        1.0  0.20900  0.20900  0.41800  1.0000
  O   O7        1.0  0.79100  0.79100  0.58200  1.0000
  O   O8        1.0  0.86100  0.36100  0.72100  1.0000
  O   O9        1.0  0.36100  0.86100  0.72100  1.0000
  O   O10       1.0  0.92900  0.92900  0.85700  1.0000
  Sr  Sr1       1.0  0.57000  0.57000  0.14100  1.0000
  Sr  Sr2       1.0  0.70100  0.70100  0.40300  1.0000
  Sr  Sr3       1.0  0.29900  0.29900  0.59700  1.0000
  Sr  Sr4       1.0  0.43000  0.43000  0.85900  1.0000
  V   V1        1.0  0.00000  0.00000  0.00000  1.0000
  V   V2        1.0  0.14000  0.14000  0.28000  1.0000
  V   V3        1.0  0.86000  0.86000  0.72000  1.0000
