data_image0
_chemical_formula_structural       Na6O9S2
_chemical_formula_sum              "Na6 O9 S2"
_cell_length_a       6.76727
_cell_length_b       6.76727
_cell_length_c       6.76727
_cell_angle_alpha    120
_cell_angle_beta     90
_cell_angle_gamma    120

_space_group_name_H-M_alt    "P 1"
_space_group_IT_number       1

loop_
  _space_group_symop_operation_xyz
  'x, y, z'

loop_
  _atom_site_type_symbol
  _atom_site_label
  _atom_site_symmetry_multiplicity
  _atom_site_fract_x
  _atom_site_fract_y
  _atom_site_fract_z
  _atom_site_occupancy
  Na  Na1       1.0  0.23700  0.00000  0.23700  1.0000
  Na  Na2       1.0  0.23700  0.47400  0.23700  1.0000
  Na  Na3       1.0  0.76300  0.00000  0.23700  1.0000
  Na  Na4       1.0  0.23700  0.00000  0.76300  1.0000
  Na  Na5       1.0  0.76300  0.00000  0.76300  1.0000
  Na  Na6       1.0  0.76300  0.52600  0.76300  1.0000
  O   O1        1.0  0.00000  0.00000  0.00000  1.0000
  O   O2        1.0  0.34000  0.68000  0.01960  1.0000
  O   O3        1.0  0.66000  0.32000  0.34000  1.0000
  O   O4        1.0  0.01960  0.68000  0.34000  1.0000
  O   O5        1.0  0.66000  0.68000  0.34000  1.0000
  O   O6        1.0  0.98000  0.32000  0.66000  1.0000
  O   O7        1.0  0.34000  0.68000  0.66000  1.0000
  O   O8        1.0  0.34000  0.32000  0.66000  1.0000
  O   O9        1.0  0.66000  0.32000  0.98000  1.0000
  S   S1        1.0  0.75000  0.50000  0.25000  1.0000
  S   S2        1.0  0.25000  0.50000  0.75000  1.0000
