data_image0
_chemical_formula_structural       Ge6Np4Ru7
_chemical_formula_sum              "Ge6 Np4 Ru7"
_cell_length_a       7.21593
_cell_length_b       7.21593
_cell_length_c       7.21593
_cell_angle_alpha    109.471
_cell_angle_beta     109.471
_cell_angle_gamma    109.471

_space_group_name_H-M_alt    "P 1"
_space_group_IT_number       1

loop_
  _space_group_symop_operation_xyz
  'x, y, z'

loop_
  _atom_site_type_symbol
  _atom_site_label
  _atom_site_symmetry_multiplicity
  _atom_site_fract_x
  _atom_site_fract_y
  _atom_site_fract_z
  _atom_site_occupancy
  Ge  Ge1       1.0  0.31000  0.31000  0.00000  1.0000
  Ge  Ge2       1.0  0.69000  0.69000  0.00000  1.0000
  Ge  Ge3       1.0  0.31000  0.00000  0.31000  1.0000
  Ge  Ge4       1.0  0.00000  0.31000  0.31000  1.0000
  Ge  Ge5       1.0  0.69000  0.00000  0.69000  1.0000
  Ge  Ge6       1.0  0.00000  0.69000  0.69000  1.0000
  Np  Np1       1.0  0.50000  0.00000  0.00000  1.0000
  Np  Np2       1.0  0.00000  0.50000  0.00000  1.0000
  Np  Np3       1.0  0.00000  0.00000  0.50000  1.0000
  Np  Np4       1.0  0.50000  0.50000  0.50000  1.0000
  Ru  Ru1       1.0  0.00000  0.00000  0.00000  1.0000
  Ru  Ru2       1.0  0.75000  0.50000  0.25000  1.0000
  Ru  Ru3       1.0  0.50000  0.75000  0.25000  1.0000
  Ru  Ru4       1.0  0.75000  0.25000  0.50000  1.0000
  Ru  Ru5       1.0  0.25000  0.75000  0.50000  1.0000
  Ru  Ru6       1.0  0.50000  0.25000  0.75000  1.0000
  Ru  Ru7       1.0  0.25000  0.50000  0.75000  1.0000
