data_image0
_chemical_formula_structural       As12CeRu4
_chemical_formula_sum              "As12 Ce1 Ru4"
_cell_length_a       7.44078
_cell_length_b       7.44078
_cell_length_c       7.44078
_cell_angle_alpha    109.471
_cell_angle_beta     109.471
_cell_angle_gamma    109.471

_space_group_name_H-M_alt    "P 1"
_space_group_IT_number       1

loop_
  _space_group_symop_operation_xyz
  'x, y, z'

loop_
  _atom_site_type_symbol
  _atom_site_label
  _atom_site_symmetry_multiplicity
  _atom_site_fract_x
  _atom_site_fract_y
  _atom_site_fract_z
  _atom_site_occupancy
  As  As1       1.0  0.35000  0.50100  0.15100  1.0000
  As  As2       1.0  0.65000  0.80100  0.15100  1.0000
  As  As3       1.0  0.84900  0.35000  0.19900  1.0000
  As  As4       1.0  0.50100  0.15100  0.35000  1.0000
  As  As5       1.0  0.19900  0.84900  0.35000  1.0000
  As  As6       1.0  0.84900  0.65000  0.49900  1.0000
  As  As7       1.0  0.15100  0.35000  0.50100  1.0000
  As  As8       1.0  0.49900  0.84900  0.65000  1.0000
  As  As9       1.0  0.80100  0.15100  0.65000  1.0000
  As  As10      1.0  0.15100  0.65000  0.80100  1.0000
  As  As11      1.0  0.35000  0.19900  0.84900  1.0000
  As  As12      1.0  0.65000  0.49900  0.84900  1.0000
  Ce  Ce1       1.0  0.00000  0.00000  0.00000  1.0000
  Ru  Ru1       1.0  0.50000  0.00000  0.00000  1.0000
  Ru  Ru2       1.0  0.00000  0.50000  0.00000  1.0000
  Ru  Ru3       1.0  0.00000  0.00000  0.50000  1.0000
  Ru  Ru4       1.0  0.50000  0.50000  0.50000  1.0000
