data_image0
_chemical_formula_structural       C6H20I2N2
_chemical_formula_sum              "C6 H20 I2 N2"
_cell_length_a       5.47684
_cell_length_b       8.1885
_cell_length_c       7.00721
_cell_angle_alpha    90
_cell_angle_beta     104.315
_cell_angle_gamma    90

_space_group_name_H-M_alt    "P 1"
_space_group_IT_number       1

loop_
  _space_group_symop_operation_xyz
  'x, y, z'

loop_
  _atom_site_type_symbol
  _atom_site_label
  _atom_site_symmetry_multiplicity
  _atom_site_fract_x
  _atom_site_fract_y
  _atom_site_fract_z
  _atom_site_occupancy
  C   C1        1.0  0.59400  0.60000  0.23700  1.0000
  C   C2        1.0  0.59400  0.90000  0.23700  1.0000
  C   C3        1.0  0.28400  0.75000  0.37200  1.0000
  C   C4        1.0  0.71600  0.25000  0.62800  1.0000
  C   C5        1.0  0.40600  0.09980  0.76300  1.0000
  C   C6        1.0  0.40600  0.40000  0.76300  1.0000
  H   H1        1.0  0.69400  0.25000  0.91700  1.0000
  H   H2        1.0  0.30600  0.75000  0.08340  1.0000
  H   H3        1.0  0.69900  0.60400  0.12300  1.0000
  H   H4        1.0  0.69900  0.89600  0.12300  1.0000
  H   H5        1.0  0.46900  0.00727  0.21700  1.0000
  H   H6        1.0  0.46900  0.49300  0.21700  1.0000
  H   H7        1.0  0.16700  0.64000  0.35000  1.0000
  H   H8        1.0  0.16700  0.86000  0.35000  1.0000
  H   H9        1.0  0.72400  0.59800  0.38400  1.0000
  H   H10       1.0  0.72400  0.90200  0.38400  1.0000
  H   H11       1.0  0.58700  0.25000  0.48100  1.0000
  H   H12       1.0  0.41300  0.75000  0.51900  1.0000
  H   H13       1.0  0.27600  0.09760  0.61600  1.0000
  H   H14       1.0  0.27600  0.40200  0.61600  1.0000
  H   H15       1.0  0.83300  0.14000  0.65000  1.0000
  H   H16       1.0  0.83300  0.36000  0.65000  1.0000
  H   H17       1.0  0.53100  0.99300  0.78300  1.0000
  H   H18       1.0  0.53100  0.50700  0.78300  1.0000
  H   H19       1.0  0.30100  0.10400  0.87700  1.0000
  H   H20       1.0  0.30100  0.39600  0.87700  1.0000
  I   I1        1.0  0.04520  0.25000  0.20200  1.0000
  I   I2        1.0  0.95500  0.75000  0.79800  1.0000
  N   N1        1.0  0.43700  0.75000  0.22300  1.0000
  N   N2        1.0  0.56300  0.25000  0.77700  1.0000
