data_image0
_chemical_formula_structural       As12Os4Th
_chemical_formula_sum              "As12 Os4 Th1"
_cell_length_a       7.4608
_cell_length_b       7.4608
_cell_length_c       7.4608
_cell_angle_alpha    109.471
_cell_angle_beta     109.471
_cell_angle_gamma    109.471

_space_group_name_H-M_alt    "P 1"
_space_group_IT_number       1

loop_
  _space_group_symop_operation_xyz
  'x, y, z'

loop_
  _atom_site_type_symbol
  _atom_site_label
  _atom_site_symmetry_multiplicity
  _atom_site_fract_x
  _atom_site_fract_y
  _atom_site_fract_z
  _atom_site_occupancy
  As  As1       1.0  0.34600  0.49600  0.14900  1.0000
  As  As2       1.0  0.65400  0.80300  0.14900  1.0000
  As  As3       1.0  0.85100  0.34600  0.19700  1.0000
  As  As4       1.0  0.49600  0.14900  0.34600  1.0000
  As  As5       1.0  0.19700  0.85100  0.34600  1.0000
  As  As6       1.0  0.14900  0.34600  0.49600  1.0000
  As  As7       1.0  0.85100  0.65400  0.50400  1.0000
  As  As8       1.0  0.80300  0.14900  0.65400  1.0000
  As  As9       1.0  0.50400  0.85100  0.65400  1.0000
  As  As10      1.0  0.14900  0.65400  0.80300  1.0000
  As  As11      1.0  0.34600  0.19700  0.85100  1.0000
  As  As12      1.0  0.65400  0.50400  0.85100  1.0000
  Os  Os1       1.0  0.50000  0.00000  0.00000  1.0000
  Os  Os2       1.0  0.00000  0.50000  0.00000  1.0000
  Os  Os3       1.0  0.00000  0.00000  0.50000  1.0000
  Os  Os4       1.0  0.50000  0.50000  0.50000  1.0000
  Th  Th1       1.0  0.00000  0.00000  0.00000  1.0000
