data_image0
_chemical_formula_structural       Br6C4H16Hg2N2
_chemical_formula_sum              "Br6 C4 H16 Hg2 N2"
_cell_length_a       10.2473
_cell_length_b       6.35985
_cell_length_c       6.97432
_cell_angle_alpha    90
_cell_angle_beta     97.2944
_cell_angle_gamma    90

_space_group_name_H-M_alt    "P 1"
_space_group_IT_number       1

loop_
  _space_group_symop_operation_xyz
  'x, y, z'

loop_
  _atom_site_type_symbol
  _atom_site_label
  _atom_site_symmetry_multiplicity
  _atom_site_fract_x
  _atom_site_fract_y
  _atom_site_fract_z
  _atom_site_occupancy
  Br  Br1       1.0  0.86900  0.25000  0.02810  1.0000
  Br  Br2       1.0  0.89000  0.75000  0.42600  1.0000
  Br  Br3       1.0  0.35800  0.75000  0.46500  1.0000
  Br  Br4       1.0  0.64200  0.25000  0.53500  1.0000
  Br  Br5       1.0  0.11000  0.25000  0.57400  1.0000
  Br  Br6       1.0  0.13100  0.75000  0.97200  1.0000
  C   C1        1.0  0.58900  0.75000  0.05060  1.0000
  C   C2        1.0  0.36400  0.25000  0.14700  1.0000
  C   C3        1.0  0.63600  0.75000  0.85300  1.0000
  C   C4        1.0  0.41100  0.25000  0.94900  1.0000
  H   H1        1.0  0.48100  0.75000  0.03230  1.0000
  H   H2        1.0  0.17700  0.11600  0.05780  1.0000
  H   H3        1.0  0.17700  0.38400  0.05780  1.0000
  H   H4        1.0  0.62300  0.61000  0.13500  1.0000
  H   H5        1.0  0.62300  0.89000  0.13500  1.0000
  H   H6        1.0  0.39700  0.11000  0.23200  1.0000
  H   H7        1.0  0.39700  0.39000  0.23200  1.0000
  H   H8        1.0  0.18400  0.25000  0.26600  1.0000
  H   H9        1.0  0.81600  0.75000  0.73400  1.0000
  H   H10       1.0  0.60300  0.61000  0.76800  1.0000
  H   H11       1.0  0.60300  0.89000  0.76800  1.0000
  H   H12       1.0  0.37700  0.11000  0.86500  1.0000
  H   H13       1.0  0.37700  0.39000  0.86500  1.0000
  H   H14       1.0  0.82300  0.61600  0.94200  1.0000
  H   H15       1.0  0.82300  0.88400  0.94200  1.0000
  H   H16       1.0  0.51900  0.25000  0.96800  1.0000
  Hg  Hg1       1.0  0.86200  0.25000  0.40600  1.0000
  Hg  Hg2       1.0  0.13800  0.75000  0.59400  1.0000
  N   N1        1.0  0.21600  0.25000  0.13000  1.0000
  N   N2        1.0  0.78400  0.75000  0.87000  1.0000
