data_image0
_chemical_formula_structural       C8H8N8O4Pt2
_chemical_formula_sum              "C8 H8 N8 O4 Pt2"
_cell_length_a       6.27238
_cell_length_b       6.27238
_cell_length_c       11.6176
_cell_angle_alpha    93.7991
_cell_angle_beta     93.7991
_cell_angle_gamma    61.6357

_space_group_name_H-M_alt    "P 1"
_space_group_IT_number       1

loop_
  _space_group_symop_operation_xyz
  'x, y, z'

loop_
  _atom_site_type_symbol
  _atom_site_label
  _atom_site_symmetry_multiplicity
  _atom_site_fract_x
  _atom_site_fract_y
  _atom_site_fract_z
  _atom_site_occupancy
  C   C1        1.0  0.34500  0.35500  0.04460  1.0000
  C   C2        1.0  0.67900  0.92700  0.15400  1.0000
  C   C3        1.0  0.07290  0.32100  0.34600  1.0000
  C   C4        1.0  0.64500  0.65500  0.45500  1.0000
  C   C5        1.0  0.35500  0.34500  0.54500  1.0000
  C   C6        1.0  0.92700  0.67900  0.65400  1.0000
  C   C7        1.0  0.32100  0.07290  0.84600  1.0000
  C   C8        1.0  0.65500  0.64500  0.95500  1.0000
  H   H1        1.0  0.23200  0.81500  0.06790  1.0000
  H   H2        1.0  0.17100  0.07690  0.14500  1.0000
  H   H3        1.0  0.92300  0.82900  0.35500  1.0000
  H   H4        1.0  0.18500  0.76800  0.43200  1.0000
  H   H5        1.0  0.81500  0.23200  0.56800  1.0000
  H   H6        1.0  0.07690  0.17100  0.64500  1.0000
  H   H7        1.0  0.82900  0.92300  0.85500  1.0000
  H   H8        1.0  0.76800  0.18500  0.93200  1.0000
  N   N1        1.0  0.26200  0.56000  0.07020  1.0000
  N   N2        1.0  0.78600  0.88800  0.24200  1.0000
  N   N3        1.0  0.11200  0.21400  0.25800  1.0000
  N   N4        1.0  0.44000  0.73800  0.43000  1.0000
  N   N5        1.0  0.56000  0.26200  0.57000  1.0000
  N   N6        1.0  0.88800  0.78600  0.74200  1.0000
  N   N7        1.0  0.21400  0.11200  0.75800  1.0000
  N   N8        1.0  0.73800  0.44000  0.93000  1.0000
  O   O1        1.0  0.20800  0.99000  0.06270  1.0000
  O   O2        1.0  0.01030  0.79200  0.43700  1.0000
  O   O3        1.0  0.99000  0.20800  0.56300  1.0000
  O   O4        1.0  0.79200  0.01030  0.93700  1.0000
  Pt  Pt1       1.0  0.50000  0.00000  0.00000  1.0000
  Pt  Pt2       1.0  0.00000  0.50000  0.50000  1.0000
