data_image0
_chemical_formula_structural       C8H12N4S4Sn2
_chemical_formula_sum              "C8 H12 N4 S4 Sn2"
_cell_length_a       9.57021
_cell_length_b       7.80587
_cell_length_c       5.59752
_cell_angle_alpha    90
_cell_angle_beta     90
_cell_angle_gamma    90

_space_group_name_H-M_alt    "P 1"
_space_group_IT_number       1

loop_
  _space_group_symop_operation_xyz
  'x, y, z'

loop_
  _atom_site_type_symbol
  _atom_site_label
  _atom_site_symmetry_multiplicity
  _atom_site_fract_x
  _atom_site_fract_y
  _atom_site_fract_z
  _atom_site_occupancy
  C   C1        1.0  0.04200  0.25000  0.08490  1.0000
  C   C2        1.0  0.45800  0.25000  0.08490  1.0000
  C   C3        1.0  0.75000  0.01010  0.33900  1.0000
  C   C4        1.0  0.75000  0.49000  0.33900  1.0000
  C   C5        1.0  0.25000  0.99000  0.66100  1.0000
  C   C6        1.0  0.25000  0.51000  0.66100  1.0000
  C   C7        1.0  0.54200  0.75000  0.91500  1.0000
  C   C8        1.0  0.95800  0.75000  0.91500  1.0000
  H   H1        1.0  0.75000  0.01730  0.14300  1.0000
  H   H2        1.0  0.75000  0.48300  0.14300  1.0000
  H   H3        1.0  0.65500  0.06850  0.41200  1.0000
  H   H4        1.0  0.84500  0.06850  0.41200  1.0000
  H   H5        1.0  0.65500  0.43200  0.41200  1.0000
  H   H6        1.0  0.84500  0.43200  0.41200  1.0000
  H   H7        1.0  0.15500  0.56800  0.58800  1.0000
  H   H8        1.0  0.34500  0.56800  0.58800  1.0000
  H   H9        1.0  0.15500  0.93200  0.58800  1.0000
  H   H10       1.0  0.34500  0.93200  0.58800  1.0000
  H   H11       1.0  0.25000  0.51700  0.85700  1.0000
  H   H12       1.0  0.25000  0.98300  0.85700  1.0000
  N   N1        1.0  0.09590  0.25000  0.27600  1.0000
  N   N2        1.0  0.40400  0.25000  0.27600  1.0000
  N   N3        1.0  0.59600  0.75000  0.72400  1.0000
  N   N4        1.0  0.90400  0.75000  0.72400  1.0000
  S   S1        1.0  0.03380  0.75000  0.17000  1.0000
  S   S2        1.0  0.46600  0.75000  0.17000  1.0000
  S   S3        1.0  0.53400  0.25000  0.83000  1.0000
  S   S4        1.0  0.96600  0.25000  0.83000  1.0000
  Sn  Sn1       1.0  0.75000  0.75000  0.44700  1.0000
  Sn  Sn2       1.0  0.25000  0.25000  0.55300  1.0000
