data_image0
_chemical_formula_structural       Cr4O12Te2
_chemical_formula_sum              "Cr4 O12 Te2"
_cell_length_a       4.5635
_cell_length_b       4.5635
_cell_length_c       9.13542
_cell_angle_alpha    90
_cell_angle_beta     90
_cell_angle_gamma    90

_space_group_name_H-M_alt    "P 1"
_space_group_IT_number       1

loop_
  _space_group_symop_operation_xyz
  'x, y, z'

loop_
  _atom_site_type_symbol
  _atom_site_label
  _atom_site_symmetry_multiplicity
  _atom_site_fract_x
  _atom_site_fract_y
  _atom_site_fract_z
  _atom_site_occupancy
  Cr  Cr1       1.0  0.50000  0.50000  0.16600  1.0000
  Cr  Cr2       1.0  0.00000  0.00000  0.33400  1.0000
  Cr  Cr3       1.0  0.00000  0.00000  0.66600  1.0000
  Cr  Cr4       1.0  0.50000  0.50000  0.83400  1.0000
  O   O1        1.0  0.30100  0.30100  0.00000  1.0000
  O   O2        1.0  0.69900  0.69900  0.00000  1.0000
  O   O3        1.0  0.80700  0.19300  0.16300  1.0000
  O   O4        1.0  0.19300  0.80700  0.16300  1.0000
  O   O5        1.0  0.30700  0.30700  0.33700  1.0000
  O   O6        1.0  0.69300  0.69300  0.33700  1.0000
  O   O7        1.0  0.80100  0.19900  0.50000  1.0000
  O   O8        1.0  0.19900  0.80100  0.50000  1.0000
  O   O9        1.0  0.30700  0.30700  0.66300  1.0000
  O   O10       1.0  0.69300  0.69300  0.66300  1.0000
  O   O11       1.0  0.80700  0.19300  0.83700  1.0000
  O   O12       1.0  0.19300  0.80700  0.83700  1.0000
  Te  Te1       1.0  0.00000  0.00000  0.00000  1.0000
  Te  Te2       1.0  0.50000  0.50000  0.50000  1.0000
