data_image0
_chemical_formula_structural       C2H12N6O8Re2
_chemical_formula_sum              "C2 H12 N6 O8 Re2"
_cell_length_a       4.82715
_cell_length_b       7.49528
_cell_length_c       8.31083
_cell_angle_alpha    74.8121
_cell_angle_beta     88.6803
_cell_angle_gamma    79.7569

_space_group_name_H-M_alt    "P 1"
_space_group_IT_number       1

loop_
  _space_group_symop_operation_xyz
  'x, y, z'

loop_
  _atom_site_type_symbol
  _atom_site_label
  _atom_site_symmetry_multiplicity
  _atom_site_fract_x
  _atom_site_fract_y
  _atom_site_fract_z
  _atom_site_occupancy
  C   C1        1.0  0.54800  0.24800  0.17900  1.0000
  C   C2        1.0  0.45200  0.75200  0.82100  1.0000
  H   H1        1.0  0.80300  0.40200  0.02970  1.0000
  H   H2        1.0  0.50200  0.75200  0.06540  1.0000
  H   H3        1.0  0.30500  0.10500  0.08210  1.0000
  H   H4        1.0  0.82100  0.39400  0.24400  1.0000
  H   H5        1.0  0.31100  0.10300  0.35100  1.0000
  H   H6        1.0  0.52100  0.23500  0.42700  1.0000
  H   H7        1.0  0.47900  0.76500  0.57300  1.0000
  H   H8        1.0  0.68900  0.89700  0.64900  1.0000
  H   H9        1.0  0.17900  0.60600  0.75600  1.0000
  H   H10       1.0  0.69500  0.89500  0.91800  1.0000
  H   H11       1.0  0.49800  0.24800  0.93500  1.0000
  H   H12       1.0  0.19700  0.59800  0.97000  1.0000
  N   N1        1.0  0.44800  0.19300  0.05480  1.0000
  N   N2        1.0  0.72300  0.37100  0.14700  1.0000
  N   N3        1.0  0.46900  0.17900  0.33500  1.0000
  N   N4        1.0  0.53100  0.82100  0.66500  1.0000
  N   N5        1.0  0.27700  0.62900  0.85300  1.0000
  N   N6        1.0  0.55200  0.80700  0.94500  1.0000
  O   O1        1.0  0.14500  0.60100  0.18800  1.0000
  O   O2        1.0  0.06740  0.97300  0.23100  1.0000
  O   O3        1.0  0.63300  0.75700  0.31500  1.0000
  O   O4        1.0  0.87000  0.33900  0.47900  1.0000
  O   O5        1.0  0.13000  0.66100  0.52100  1.0000
  O   O6        1.0  0.36700  0.24300  0.68500  1.0000
  O   O7        1.0  0.93300  0.02700  0.76900  1.0000
  O   O8        1.0  0.85500  0.39900  0.81200  1.0000
  Re  Re1       1.0  0.99900  0.74500  0.31500  1.0000
  Re  Re2       1.0  0.00133  0.25500  0.68500  1.0000
