data_image0
_chemical_formula_structural       C2H10O14P2Pr2
_chemical_formula_sum              "C2 H10 O14 P2 Pr2"
_cell_length_a       6.61051
_cell_length_b       7.00699
_cell_length_c       7.50735
_cell_angle_alpha    110.084
_cell_angle_beta     94.1675
_cell_angle_gamma    90.4845

_space_group_name_H-M_alt    "P 1"
_space_group_IT_number       1

loop_
  _space_group_symop_operation_xyz
  'x, y, z'

loop_
  _atom_site_type_symbol
  _atom_site_label
  _atom_site_symmetry_multiplicity
  _atom_site_fract_x
  _atom_site_fract_y
  _atom_site_fract_z
  _atom_site_occupancy
  C   C1        1.0  0.93400  0.09050  0.49900  1.0000
  C   C2        1.0  0.06570  0.91000  0.50100  1.0000
  H   H1        1.0  0.59700  0.27700  0.19300  1.0000
  H   H2        1.0  0.16900  0.52600  0.34400  1.0000
  H   H3        1.0  0.53300  0.75400  0.36600  1.0000
  H   H4        1.0  0.29400  0.34000  0.38100  1.0000
  H   H5        1.0  0.55500  0.15800  0.43400  1.0000
  H   H6        1.0  0.44500  0.84200  0.56600  1.0000
  H   H7        1.0  0.70600  0.66000  0.61900  1.0000
  H   H8        1.0  0.46700  0.24600  0.63400  1.0000
  H   H9        1.0  0.83100  0.47400  0.65600  1.0000
  H   H10       1.0  0.40300  0.72300  0.80700  1.0000
  O   O1        1.0  0.82100  0.42700  0.04120  1.0000
  O   O2        1.0  0.20800  0.94400  0.04800  1.0000
  O   O3        1.0  0.51800  0.75600  0.12100  1.0000
  O   O4        1.0  0.20800  0.38300  0.28700  1.0000
  O   O5        1.0  0.82300  0.06990  0.34900  1.0000
  O   O6        1.0  0.05230  0.75300  0.35200  1.0000
  O   O7        1.0  0.43600  0.22400  0.49700  1.0000
  O   O8        1.0  0.56400  0.77600  0.50300  1.0000
  O   O9        1.0  0.94800  0.24700  0.64800  1.0000
  O   O10       1.0  0.17700  0.93000  0.65100  1.0000
  O   O11       1.0  0.79200  0.61700  0.71300  1.0000
  O   O12       1.0  0.48200  0.24400  0.87900  1.0000
  O   O13       1.0  0.79200  0.05610  0.95200  1.0000
  O   O14       1.0  0.17900  0.57300  0.95900  1.0000
  P   P1        1.0  0.66700  0.25100  0.01450  1.0000
  P   P2        1.0  0.33300  0.74900  0.98500  1.0000
  Pr  Pr1       1.0  0.86700  0.77200  0.05660  1.0000
  Pr  Pr2       1.0  0.13300  0.22800  0.94300  1.0000
