data_image0
_chemical_formula_structural       C8H4N8O4Pt2Rb4
_chemical_formula_sum              "C8 H4 N8 O4 Pt2 Rb4"
_cell_length_a       6.41916
_cell_length_b       8.88463
_cell_length_c       8.88463
_cell_angle_alpha    99.6385
_cell_angle_beta     102.74
_cell_angle_gamma    77.2604

_space_group_name_H-M_alt    "P 1"
_space_group_IT_number       1

loop_
  _space_group_symop_operation_xyz
  'x, y, z'

loop_
  _atom_site_type_symbol
  _atom_site_label
  _atom_site_symmetry_multiplicity
  _atom_site_fract_x
  _atom_site_fract_y
  _atom_site_fract_z
  _atom_site_occupancy
  C   C1        1.0  0.97100  0.38900  0.28600  1.0000
  C   C2        1.0  0.41300  0.58200  0.29600  1.0000
  C   C3        1.0  0.52900  0.28600  0.38900  1.0000
  C   C4        1.0  0.91300  0.70400  0.41800  1.0000
  C   C5        1.0  0.08710  0.29600  0.58200  1.0000
  C   C6        1.0  0.47100  0.71400  0.61100  1.0000
  C   C7        1.0  0.58700  0.41800  0.70400  1.0000
  C   C8        1.0  0.02870  0.61100  0.71400  1.0000
  H   H1        1.0  0.80800  0.18600  0.04080  1.0000
  H   H2        1.0  0.69200  0.04080  0.18600  1.0000
  H   H3        1.0  0.30800  0.95900  0.81400  1.0000
  H   H4        1.0  0.19200  0.81400  0.95900  1.0000
  N   N1        1.0  0.95600  0.32000  0.16000  1.0000
  N   N2        1.0  0.36100  0.62900  0.17400  1.0000
  N   N3        1.0  0.54400  0.16000  0.32000  1.0000
  N   N4        1.0  0.86100  0.82600  0.37100  1.0000
  N   N5        1.0  0.13900  0.17400  0.62900  1.0000
  N   N6        1.0  0.45600  0.84000  0.68000  1.0000
  N   N7        1.0  0.63900  0.37100  0.82600  1.0000
  N   N8        1.0  0.04380  0.68000  0.84000  1.0000
  O   O1        1.0  0.71300  0.10700  0.99500  1.0000
  O   O2        1.0  0.28700  0.89300  0.00508  1.0000
  O   O3        1.0  0.78700  0.99500  0.10700  1.0000
  O   O4        1.0  0.21300  0.00508  0.89300  1.0000
  Pt  Pt1       1.0  0.00000  0.50000  0.50000  1.0000
  Pt  Pt2       1.0  0.50000  0.50000  0.50000  1.0000
  Rb  Rb1       1.0  0.71400  0.67800  0.02680  1.0000
  Rb  Rb2       1.0  0.21400  0.97300  0.32200  1.0000
  Rb  Rb3       1.0  0.78600  0.02680  0.67800  1.0000
  Rb  Rb4       1.0  0.28600  0.32200  0.97300  1.0000
