data_image0
_chemical_formula_structural       Ba2Gd4O10Pt2
_chemical_formula_sum              "Ba2 Gd4 O10 Pt2"
_cell_length_a       6.60181
_cell_length_b       6.60181
_cell_length_c       5.91202
_cell_angle_alpha    90
_cell_angle_beta     90
_cell_angle_gamma    90

_space_group_name_H-M_alt    "P 1"
_space_group_IT_number       1

loop_
  _space_group_symop_operation_xyz
  'x, y, z'

loop_
  _atom_site_type_symbol
  _atom_site_label
  _atom_site_symmetry_multiplicity
  _atom_site_fract_x
  _atom_site_fract_y
  _atom_site_fract_z
  _atom_site_occupancy
  Ba  Ba1       1.0  0.00000  0.00000  0.00000  1.0000
  Ba  Ba2       1.0  0.50000  0.50000  0.00000  1.0000
  Gd  Gd1       1.0  0.32600  0.17400  0.50000  1.0000
  Gd  Gd2       1.0  0.82600  0.32600  0.50000  1.0000
  Gd  Gd3       1.0  0.17400  0.67400  0.50000  1.0000
  Gd  Gd4       1.0  0.67400  0.82600  0.50000  1.0000
  O   O1        1.0  0.64100  0.14000  0.26000  1.0000
  O   O2        1.0  0.14000  0.35900  0.26000  1.0000
  O   O3        1.0  0.86000  0.64100  0.26000  1.0000
  O   O4        1.0  0.35900  0.86000  0.26000  1.0000
  O   O5        1.0  0.00000  0.00000  0.50000  1.0000
  O   O6        1.0  0.50000  0.50000  0.50000  1.0000
  O   O7        1.0  0.64100  0.14000  0.74000  1.0000
  O   O8        1.0  0.14000  0.35900  0.74000  1.0000
  O   O9        1.0  0.86000  0.64100  0.74000  1.0000
  O   O10       1.0  0.35900  0.86000  0.74000  1.0000
  Pt  Pt1       1.0  0.50000  0.00000  0.00000  1.0000
  Pt  Pt2       1.0  0.00000  0.50000  0.00000  1.0000
