data_image0
_chemical_formula_structural       Al6C8Zr4
_chemical_formula_sum              "Al6 C8 Zr4"
_cell_length_a       3.35932
_cell_length_b       3.35919
_cell_length_c       22.2904
_cell_angle_alpha    90
_cell_angle_beta     90
_cell_angle_gamma    120.001

_space_group_name_H-M_alt    "P 1"
_space_group_IT_number       1

loop_
  _space_group_symop_operation_xyz
  'x, y, z'

loop_
  _atom_site_type_symbol
  _atom_site_label
  _atom_site_symmetry_multiplicity
  _atom_site_fract_x
  _atom_site_fract_y
  _atom_site_fract_z
  _atom_site_occupancy
  Al  Al1       1.0  0.00000  0.00000  0.15700  1.0000
  Al  Al2       1.0  0.33300  0.66700  0.24700  1.0000
  Al  Al3       1.0  0.00000  0.00000  0.33800  1.0000
  Al  Al4       1.0  0.00000  0.00001  0.65700  1.0000
  Al  Al5       1.0  0.66700  0.33300  0.74700  1.0000
  Al  Al6       1.0  0.00000  0.00001  0.83800  1.0000
  C   C1        1.0  0.00000  0.00000  0.99700  1.0000
  C   C2        1.0  0.33300  0.66700  0.12600  1.0000
  C   C3        1.0  0.00001  0.00002  0.24700  1.0000
  C   C4        1.0  0.33300  0.66700  0.36900  1.0000
  C   C5        1.0  0.00000  0.00000  0.49700  1.0000
  C   C6        1.0  0.66700  0.33300  0.62600  1.0000
  C   C7        1.0  0.00000  0.00000  0.74700  1.0000
  C   C8        1.0  0.66700  0.33300  0.86900  1.0000
  Zr  Zr1       1.0  0.66700  0.33300  0.05610  1.0000
  Zr  Zr2       1.0  0.66700  0.33300  0.43900  1.0000
  Zr  Zr3       1.0  0.33300  0.66700  0.55600  1.0000
  Zr  Zr4       1.0  0.33300  0.66700  0.93900  1.0000
