data_image0
_chemical_formula_structural       B2Dy10Ge6
_chemical_formula_sum              "B2 Dy10 Ge6"
_cell_length_a       8.60999
_cell_length_b       8.60999
_cell_length_c       6.39971
_cell_angle_alpha    90
_cell_angle_beta     90
_cell_angle_gamma    120

_space_group_name_H-M_alt    "P 1"
_space_group_IT_number       1

loop_
  _space_group_symop_operation_xyz
  'x, y, z'

loop_
  _atom_site_type_symbol
  _atom_site_label
  _atom_site_symmetry_multiplicity
  _atom_site_fract_x
  _atom_site_fract_y
  _atom_site_fract_z
  _atom_site_occupancy
  B   B1        1.0  1.00000  1.00000  0.00000  1.0000
  B   B2        1.0  0.00000  0.00000  0.50000  1.0000
  Dy  Dy1       1.0  0.66700  0.33300  0.00000  1.0000
  Dy  Dy2       1.0  0.33300  0.66700  0.00000  1.0000
  Dy  Dy3       1.0  0.76300  0.76300  0.25000  1.0000
  Dy  Dy4       1.0  0.23700  0.00000  0.25000  1.0000
  Dy  Dy5       1.0  1.00000  0.23700  0.25000  1.0000
  Dy  Dy6       1.0  0.66700  0.33300  0.50000  1.0000
  Dy  Dy7       1.0  0.33300  0.66700  0.50000  1.0000
  Dy  Dy8       1.0  0.23700  0.23700  0.75000  1.0000
  Dy  Dy9       1.0  0.76300  0.00000  0.75000  1.0000
  Dy  Dy10      1.0  1.00000  0.76300  0.75000  1.0000
  Ge  Ge1       1.0  0.40000  0.40000  0.25000  1.0000
  Ge  Ge2       1.0  0.60000  1.00000  0.25000  1.0000
  Ge  Ge3       1.0  1.00000  0.60000  0.25000  1.0000
  Ge  Ge4       1.0  0.60000  0.60000  0.75000  1.0000
  Ge  Ge5       1.0  0.40000  0.00000  0.75000  1.0000
  Ge  Ge6       1.0  1.00000  0.40000  0.75000  1.0000
