data_image0
_chemical_formula_structural       B8Ce2Fe8
_chemical_formula_sum              "B8 Ce2 Fe8"
_cell_length_a       7.10697
_cell_length_b       7.10697
_cell_length_c       3.80065
_cell_angle_alpha    90
_cell_angle_beta     90
_cell_angle_gamma    90

_space_group_name_H-M_alt    "P 1"
_space_group_IT_number       1

loop_
  _space_group_symop_operation_xyz
  'x, y, z'

loop_
  _atom_site_type_symbol
  _atom_site_label
  _atom_site_symmetry_multiplicity
  _atom_site_fract_x
  _atom_site_fract_y
  _atom_site_fract_z
  _atom_site_occupancy
  B   B1        1.0  0.04830  0.58500  0.14500  1.0000
  B   B2        1.0  0.45200  0.91500  0.14500  1.0000
  B   B3        1.0  0.91500  0.04830  0.35500  1.0000
  B   B4        1.0  0.58500  0.45200  0.35500  1.0000
  B   B5        1.0  0.41500  0.54800  0.64500  1.0000
  B   B6        1.0  0.08460  0.95200  0.64500  1.0000
  B   B7        1.0  0.54800  0.08460  0.85500  1.0000
  B   B8        1.0  0.95200  0.41500  0.85500  1.0000
  Ce  Ce1       1.0  0.25000  0.25000  0.25000  1.0000
  Ce  Ce2       1.0  0.75000  0.75000  0.75000  1.0000
  Fe  Fe1       1.0  0.38200  0.63900  0.14400  1.0000
  Fe  Fe2       1.0  0.11800  0.86100  0.14400  1.0000
  Fe  Fe3       1.0  0.63900  0.11800  0.35600  1.0000
  Fe  Fe4       1.0  0.86100  0.38200  0.35600  1.0000
  Fe  Fe5       1.0  0.13900  0.61800  0.64400  1.0000
  Fe  Fe6       1.0  0.36100  0.88200  0.64400  1.0000
  Fe  Fe7       1.0  0.88200  0.13900  0.85600  1.0000
  Fe  Fe8       1.0  0.61800  0.36100  0.85600  1.0000
