data_image0
_chemical_formula_structural       Fe4O11Sr4
_chemical_formula_sum              "Fe4 O11 Sr4"
_cell_length_a       5.46652
_cell_length_b       6.70689
_cell_length_c       6.70689
_cell_angle_alpha    110.103
_cell_angle_beta     90
_cell_angle_gamma    90

_space_group_name_H-M_alt    "P 1"
_space_group_IT_number       1

loop_
  _space_group_symop_operation_xyz
  'x, y, z'

loop_
  _atom_site_type_symbol
  _atom_site_label
  _atom_site_symmetry_multiplicity
  _atom_site_fract_x
  _atom_site_fract_y
  _atom_site_fract_z
  _atom_site_occupancy
  Fe  Fe1       1.0  0.50000  0.50000  0.00000  1.0000
  Fe  Fe2       1.0  0.00000  0.25200  0.25200  1.0000
  Fe  Fe3       1.0  0.50000  0.00000  0.50000  1.0000
  Fe  Fe4       1.0  0.00000  0.74800  0.74800  1.0000
  O   O1        1.0  0.24000  0.34200  0.09960  1.0000
  O   O2        1.0  0.76000  0.34200  0.09960  1.0000
  O   O3        1.0  0.50000  0.72700  0.27300  1.0000
  O   O4        1.0  0.24000  0.09960  0.34200  1.0000
  O   O5        1.0  0.76000  0.09960  0.34200  1.0000
  O   O6        1.0  0.00000  0.50000  0.50000  1.0000
  O   O7        1.0  0.24000  0.90000  0.65800  1.0000
  O   O8        1.0  0.76000  0.90000  0.65800  1.0000
  O   O9        1.0  0.50000  0.27300  0.72700  1.0000
  O   O10       1.0  0.24000  0.65800  0.90000  1.0000
  O   O11       1.0  0.76000  0.65800  0.90000  1.0000
  Sr  Sr1       1.0  0.50000  0.00000  0.00000  1.0000
  Sr  Sr2       1.0  0.00000  0.74000  0.26000  1.0000
  Sr  Sr3       1.0  0.50000  0.50000  0.50000  1.0000
  Sr  Sr4       1.0  0.00000  0.26000  0.74000  1.0000
