data_image0
_chemical_formula_structural       BC12H3O12Ru4
_chemical_formula_sum              "B1 C12 H3 O12 Ru4"
_cell_length_a       8.89733
_cell_length_b       8.89733
_cell_length_c       6.01475
_cell_angle_alpha    78.0313
_cell_angle_beta     101.969
_cell_angle_gamma    66.5837

_space_group_name_H-M_alt    "P 1"
_space_group_IT_number       1

loop_
  _space_group_symop_operation_xyz
  'x, y, z'

loop_
  _atom_site_type_symbol
  _atom_site_label
  _atom_site_symmetry_multiplicity
  _atom_site_fract_x
  _atom_site_fract_y
  _atom_site_fract_z
  _atom_site_occupancy
  B   B1        1.0  0.80000  0.20000  0.78100  1.0000
  C   C1        1.0  0.47600  0.52400  0.92900  1.0000
  C   C2        1.0  0.04760  0.75900  0.95600  1.0000
  C   C3        1.0  0.24100  0.95200  0.95600  1.0000
  C   C4        1.0  0.12300  0.87700  0.33600  1.0000
  C   C5        1.0  0.10100  0.20000  0.32600  1.0000
  C   C6        1.0  0.80000  0.89900  0.32600  1.0000
  C   C7        1.0  0.98400  0.36800  0.82100  1.0000
  C   C8        1.0  0.63200  0.01640  0.82100  1.0000
  C   C9        1.0  0.79400  0.51900  0.10400  1.0000
  C   C10       1.0  0.48100  0.20600  0.10400  1.0000
  C   C11       1.0  0.54400  0.64600  0.52300  1.0000
  C   C12       1.0  0.35400  0.45600  0.52300  1.0000
  H   H1        1.0  0.69600  0.30400  0.55700  1.0000
  H   H2        1.0  0.79000  0.21000  0.24600  1.0000
  H   H3        1.0  0.90700  0.09290  0.69200  1.0000
  O   O1        1.0  0.74000  0.65700  0.12000  1.0000
  O   O2        1.0  0.34300  0.26000  0.12000  1.0000
  O   O3        1.0  0.21800  0.48100  0.41500  1.0000
  O   O4        1.0  0.51900  0.78200  0.41500  1.0000
  O   O5        1.0  0.03150  0.40300  0.66300  1.0000
  O   O6        1.0  0.59700  0.96800  0.66300  1.0000
  O   O7        1.0  0.18000  0.82000  0.54400  1.0000
  O   O8        1.0  0.41900  0.58100  0.06760  1.0000
  O   O9        1.0  0.06000  0.62800  0.93700  1.0000
  O   O10       1.0  0.37200  0.94000  0.93700  1.0000
  O   O11       1.0  0.85500  0.77100  0.48100  1.0000
  O   O12       1.0  0.22900  0.14500  0.48100  1.0000
  Ru  Ru1       1.0  0.57000  0.43000  0.70800  1.0000
  Ru  Ru2       1.0  0.89300  0.29900  0.05810  1.0000
  Ru  Ru3       1.0  0.70100  0.10700  0.05810  1.0000
  Ru  Ru4       1.0  0.02840  0.97200  0.99800  1.0000
