data_image0
_chemical_formula_structural       Te2Ti
_chemical_formula_sum              "Te2 Ti1"
_cell_length_a       3.75133
_cell_length_b       3.75115
_cell_length_c       6.65978
_cell_angle_alpha    90
_cell_angle_beta     89.9901
_cell_angle_gamma    119.998

_space_group_name_H-M_alt    "P 1"
_space_group_IT_number       1

loop_
  _space_group_symop_operation_xyz
  'x, y, z'

loop_
  _atom_site_type_symbol
  _atom_site_label
  _atom_site_symmetry_multiplicity
  _atom_site_fract_x
  _atom_site_fract_y
  _atom_site_fract_z
  _atom_site_occupancy
  Te  Te1       1.0  0.66700  0.33300  0.25900  1.0000
  Te  Te2       1.0  0.33300  0.66700  0.74100  1.0000
  Ti  Ti1       1.0  0.00000  0.00000  0.00000  1.0000
