data_image0
_chemical_formula_structural       CaMn2P2
_chemical_formula_sum              "Ca1 Mn2 P2"
_cell_length_a       3.78702
_cell_length_b       3.78709
_cell_length_c       6.71513
_cell_angle_alpha    90
_cell_angle_beta     89.9843
_cell_angle_gamma    120.001

_space_group_name_H-M_alt    "P 1"
_space_group_IT_number       1

loop_
  _space_group_symop_operation_xyz
  'x, y, z'

loop_
  _atom_site_type_symbol
  _atom_site_label
  _atom_site_symmetry_multiplicity
  _atom_site_fract_x
  _atom_site_fract_y
  _atom_site_fract_z
  _atom_site_occupancy
  Ca  Ca1       1.0  0.00008  0.00004  0.00005  1.0000
  Mn  Mn1       1.0  0.66700  0.33300  0.38300  1.0000
  Mn  Mn2       1.0  0.33300  0.66700  0.61700  1.0000
  P   P1        1.0  0.33300  0.66700  0.28100  1.0000
  P   P2        1.0  0.66700  0.33300  0.71900  1.0000
