data_image0
_chemical_formula_structural       VW
_chemical_formula_sum              "V1 W1"
_cell_length_a       4.40258
_cell_length_b       4.40258
_cell_length_c       4.40258
_cell_angle_alpha    38.865
_cell_angle_beta     38.865
_cell_angle_gamma    38.865

_space_group_name_H-M_alt    "P 1"
_space_group_IT_number       1

loop_
  _space_group_symop_operation_xyz
  'x, y, z'

loop_
  _atom_site_type_symbol
  _atom_site_label
  _atom_site_symmetry_multiplicity
  _atom_site_fract_x
  _atom_site_fract_y
  _atom_site_fract_z
  _atom_site_occupancy
  V   V1        1.0  0.00000  0.00000  0.00000  1.0000
  W   W1        1.0  0.50000  0.50000  0.50000  1.0000
