data_image0
_chemical_formula_structural       F6O2
_chemical_formula_sum              "F6 O2"
_cell_length_a       5.28853
_cell_length_b       5.28853
_cell_length_c       2.7639
_cell_angle_alpha    90
_cell_angle_beta     90
_cell_angle_gamma    120

_space_group_name_H-M_alt    "P 1"
_space_group_IT_number       1

loop_
  _space_group_symop_operation_xyz
  'x, y, z'

loop_
  _atom_site_type_symbol
  _atom_site_label
  _atom_site_symmetry_multiplicity
  _atom_site_fract_x
  _atom_site_fract_y
  _atom_site_fract_z
  _atom_site_occupancy
  F   F1        1.0  0.18800  0.37700  0.25000  1.0000
  F   F2        1.0  0.62300  0.81200  0.25000  1.0000
  F   F3        1.0  0.18800  0.81200  0.25000  1.0000
  F   F4        1.0  0.81200  0.62300  0.75000  1.0000
  F   F5        1.0  0.37700  0.18800  0.75000  1.0000
  F   F6        1.0  0.81200  0.18800  0.75000  1.0000
  O   O1        1.0  0.33300  0.66700  0.75000  1.0000
  O   O2        1.0  0.66700  0.33300  0.25000  1.0000
