data_image0
_chemical_formula_structural       Cl6Cs2Ti2
_chemical_formula_sum              "Cl6 Cs2 Ti2"
_cell_length_a       7.48479
_cell_length_b       7.48453
_cell_length_c       5.70642
_cell_angle_alpha    90
_cell_angle_beta     90
_cell_angle_gamma    120.001

_space_group_name_H-M_alt    "P 1"
_space_group_IT_number       1

loop_
  _space_group_symop_operation_xyz
  'x, y, z'

loop_
  _atom_site_type_symbol
  _atom_site_label
  _atom_site_symmetry_multiplicity
  _atom_site_fract_x
  _atom_site_fract_y
  _atom_site_fract_z
  _atom_site_occupancy
  Cl  Cl1       1.0  0.16000  0.32100  0.25000  1.0000
  Cl  Cl2       1.0  0.16000  0.84000  0.25000  1.0000
  Cl  Cl3       1.0  0.67900  0.84000  0.25000  1.0000
  Cl  Cl4       1.0  0.32100  0.16000  0.75000  1.0000
  Cl  Cl5       1.0  0.84000  0.16000  0.75000  1.0000
  Cl  Cl6       1.0  0.84000  0.67900  0.75000  1.0000
  Cs  Cs1       1.0  0.66700  0.33300  0.25000  1.0000
  Cs  Cs2       1.0  0.33300  0.66700  0.75000  1.0000
  Ti  Ti1       1.0  0.00000  0.00000  0.00000  1.0000
  Ti  Ti2       1.0  0.00000  0.00000  0.50000  1.0000
