data_image0
_chemical_formula_structural       Rh2Si2Yb
_chemical_formula_sum              "Rh2 Si2 Yb1"
_cell_length_a       4.09388
_cell_length_b       4.09388
_cell_length_c       5.75558
_cell_angle_alpha    110.833
_cell_angle_beta     110.833
_cell_angle_gamma    90

_space_group_name_H-M_alt    "P 1"
_space_group_IT_number       1

loop_
  _space_group_symop_operation_xyz
  'x, y, z'

loop_
  _atom_site_type_symbol
  _atom_site_label
  _atom_site_symmetry_multiplicity
  _atom_site_fract_x
  _atom_site_fract_y
  _atom_site_fract_z
  _atom_site_occupancy
  Rh  Rh1       1.0  0.75000  0.25000  0.50000  1.0000
  Rh  Rh2       1.0  0.25000  0.75000  0.50000  1.0000
  Si  Si1       1.0  0.62500  0.62500  0.25000  1.0000
  Si  Si2       1.0  0.37500  0.37500  0.75000  1.0000
  Yb  Yb1       1.0  0.00000  0.00000  0.00000  1.0000
