data_image0
_chemical_formula_structural       Au2Ge2Th
_chemical_formula_sum              "Au2 Ge2 Th1"
_cell_length_a       4.47518
_cell_length_b       4.47518
_cell_length_c       6.0966
_cell_angle_alpha    111.532
_cell_angle_beta     111.532
_cell_angle_gamma    90

_space_group_name_H-M_alt    "P 1"
_space_group_IT_number       1

loop_
  _space_group_symop_operation_xyz
  'x, y, z'

loop_
  _atom_site_type_symbol
  _atom_site_label
  _atom_site_symmetry_multiplicity
  _atom_site_fract_x
  _atom_site_fract_y
  _atom_site_fract_z
  _atom_site_occupancy
  Au  Au1       1.0  0.75000  0.25000  0.50000  1.0000
  Au  Au2       1.0  0.25000  0.75000  0.50000  1.0000
  Ge  Ge1       1.0  0.61700  0.61700  0.23300  1.0000
  Ge  Ge2       1.0  0.38300  0.38300  0.76700  1.0000
  Th  Th1       1.0  0.00000  0.00000  0.00000  1.0000
