data_image0
_chemical_formula_structural       Ga2Pr
_chemical_formula_sum              "Ga2 Pr1"
_cell_length_a       4.30135
_cell_length_b       4.30135
_cell_length_c       4.30881
_cell_angle_alpha    90
_cell_angle_beta     90
_cell_angle_gamma    120.001

_space_group_name_H-M_alt    "P 1"
_space_group_IT_number       1

loop_
  _space_group_symop_operation_xyz
  'x, y, z'

loop_
  _atom_site_type_symbol
  _atom_site_label
  _atom_site_symmetry_multiplicity
  _atom_site_fract_x
  _atom_site_fract_y
  _atom_site_fract_z
  _atom_site_occupancy
  Ga  Ga1       1.0  0.66700  0.33300  0.50000  1.0000
  Ga  Ga2       1.0  0.33300  0.66700  0.50000  1.0000
  Pr  Pr1       1.0  0.00000  0.00000  0.00000  1.0000
