data_image0
_chemical_formula_structural       Cl2N2Ti2
_chemical_formula_sum              "Cl2 N2 Ti2"
_cell_length_a       3.96089
_cell_length_b       3.2635
_cell_length_c       7.85367
_cell_angle_alpha    90
_cell_angle_beta     90
_cell_angle_gamma    90

_space_group_name_H-M_alt    "P 1"
_space_group_IT_number       1

loop_
  _space_group_symop_operation_xyz
  'x, y, z'

loop_
  _atom_site_type_symbol
  _atom_site_label
  _atom_site_symmetry_multiplicity
  _atom_site_fract_x
  _atom_site_fract_y
  _atom_site_fract_z
  _atom_site_occupancy
  Cl  Cl1       1.0  0.00000  0.00000  0.33100  1.0000
  Cl  Cl2       1.0  0.50000  0.50000  0.66900  1.0000
  N   N1        1.0  0.50000  0.50000  0.05030  1.0000
  N   N2        1.0  0.00000  0.00000  0.95000  1.0000
  Ti  Ti1       1.0  0.00000  0.50000  0.09850  1.0000
  Ti  Ti2       1.0  0.50000  0.00000  0.90200  1.0000
