data_image0
_chemical_formula_structural       Au4Br6
_chemical_formula_sum              "Au4 Br6"
_cell_length_a       6.95607
_cell_length_b       6.95607
_cell_length_c       7.48716
_cell_angle_alpha    117.68
_cell_angle_beta     62.32
_cell_angle_gamma    120

_space_group_name_H-M_alt    "P 1"
_space_group_IT_number       1

loop_
  _space_group_symop_operation_xyz
  'x, y, z'

loop_
  _atom_site_type_symbol
  _atom_site_label
  _atom_site_symmetry_multiplicity
  _atom_site_fract_x
  _atom_site_fract_y
  _atom_site_fract_z
  _atom_site_occupancy
  Au  Au1       1.0  0.65900  0.34100  0.02330  1.0000
  Au  Au2       1.0  0.84100  0.15900  0.47700  1.0000
  Au  Au3       1.0  0.15900  0.84100  0.52300  1.0000
  Au  Au4       1.0  0.34100  0.65900  0.97700  1.0000
  Br  Br1       1.0  0.25000  0.07330  0.25000  1.0000
  Br  Br2       1.0  0.57300  0.75000  0.25000  1.0000
  Br  Br3       1.0  0.92700  0.42700  0.25000  1.0000
  Br  Br4       1.0  0.07330  0.57300  0.75000  1.0000
  Br  Br5       1.0  0.42700  0.25000  0.75000  1.0000
  Br  Br6       1.0  0.75000  0.92700  0.75000  1.0000
