data_image0
_chemical_formula_structural       Cl4Y6
_chemical_formula_sum              "Cl4 Y6"
_cell_length_a       6.84662
_cell_length_b       6.84662
_cell_length_c       7.30768
_cell_angle_alpha    117.934
_cell_angle_beta     62.066
_cell_angle_gamma    120

_space_group_name_H-M_alt    "P 1"
_space_group_IT_number       1

loop_
  _space_group_symop_operation_xyz
  'x, y, z'

loop_
  _atom_site_type_symbol
  _atom_site_label
  _atom_site_symmetry_multiplicity
  _atom_site_fract_x
  _atom_site_fract_y
  _atom_site_fract_z
  _atom_site_occupancy
  Cl  Cl1       1.0  0.66600  0.33400  0.00280  1.0000
  Cl  Cl2       1.0  0.83400  0.16600  0.49700  1.0000
  Cl  Cl3       1.0  0.16600  0.83400  0.50300  1.0000
  Cl  Cl4       1.0  0.33400  0.66600  0.99700  1.0000
  Y   Y1        1.0  0.59200  0.75000  0.25000  1.0000
  Y   Y2        1.0  0.90800  0.40800  0.25000  1.0000
  Y   Y3        1.0  0.25000  0.09180  0.25000  1.0000
  Y   Y4        1.0  0.75000  0.90800  0.75000  1.0000
  Y   Y5        1.0  0.09180  0.59200  0.75000  1.0000
  Y   Y6        1.0  0.40800  0.25000  0.75000  1.0000
