data_image0
_chemical_formula_structural       O4Re6
_chemical_formula_sum              "O4 Re6"
_cell_length_a       6.54638
_cell_length_b       6.54638
_cell_length_c       4.8771
_cell_angle_alpha    132.155
_cell_angle_beta     47.8453
_cell_angle_gamma    120

_space_group_name_H-M_alt    "P 1"
_space_group_IT_number       1

loop_
  _space_group_symop_operation_xyz
  'x, y, z'

loop_
  _atom_site_type_symbol
  _atom_site_label
  _atom_site_symmetry_multiplicity
  _atom_site_fract_x
  _atom_site_fract_y
  _atom_site_fract_z
  _atom_site_occupancy
  O   O1        1.0  0.62500  0.37500  0.12600  1.0000
  O   O2        1.0  0.87500  0.12500  0.37400  1.0000
  O   O3        1.0  0.12500  0.87500  0.62600  1.0000
  O   O4        1.0  0.37500  0.62500  0.87400  1.0000
  Re  Re1       1.0  0.25000  0.09670  0.25000  1.0000
  Re  Re2       1.0  0.59700  0.75000  0.25000  1.0000
  Re  Re3       1.0  0.90300  0.40300  0.25000  1.0000
  Re  Re4       1.0  0.09670  0.59700  0.75000  1.0000
  Re  Re5       1.0  0.40300  0.25000  0.75000  1.0000
  Re  Re6       1.0  0.75000  0.90300  0.75000  1.0000
