data_image0
_chemical_formula_structural       F4Pt6
_chemical_formula_sum              "F4 Pt6"
_cell_length_a       5.77848
_cell_length_b       5.77849
_cell_length_c       5.97869
_cell_angle_alpha    118.898
_cell_angle_beta     61.1017
_cell_angle_gamma    120

_space_group_name_H-M_alt    "P 1"
_space_group_IT_number       1

loop_
  _space_group_symop_operation_xyz
  'x, y, z'

loop_
  _atom_site_type_symbol
  _atom_site_label
  _atom_site_symmetry_multiplicity
  _atom_site_fract_x
  _atom_site_fract_y
  _atom_site_fract_z
  _atom_site_occupancy
  F   F1        1.0  0.92200  0.07790  0.23400  1.0000
  F   F2        1.0  0.57800  0.42200  0.26600  1.0000
  F   F3        1.0  0.42200  0.57800  0.73400  1.0000
  F   F4        1.0  0.07790  0.92200  0.76600  1.0000
  Pt  Pt1       1.0  0.50000  0.75000  0.25000  1.0000
  Pt  Pt2       1.0  0.00000  0.50000  0.25000  1.0000
  Pt  Pt3       1.0  0.25000  0.00011  0.25000  1.0000
  Pt  Pt4       1.0  0.00011  0.50000  0.75000  1.0000
  Pt  Pt5       1.0  0.50000  0.25000  0.75000  1.0000
  Pt  Pt6       1.0  0.75000  0.00000  0.75000  1.0000
