data_image0
_chemical_formula_structural       F4Pm6
_chemical_formula_sum              "F4 Pm6"
_cell_length_a       6.53034
_cell_length_b       6.53035
_cell_length_c       6.82689
_cell_angle_alpha    118.573
_cell_angle_beta     61.4268
_cell_angle_gamma    120

_space_group_name_H-M_alt    "P 1"
_space_group_IT_number       1

loop_
  _space_group_symop_operation_xyz
  'x, y, z'

loop_
  _atom_site_type_symbol
  _atom_site_label
  _atom_site_symmetry_multiplicity
  _atom_site_fract_x
  _atom_site_fract_y
  _atom_site_fract_z
  _atom_site_occupancy
  F   F1        1.0  0.66600  0.33400  0.00227  1.0000
  F   F2        1.0  0.83400  0.16600  0.49800  1.0000
  F   F3        1.0  0.16600  0.83400  0.50200  1.0000
  F   F4        1.0  0.33400  0.66600  0.99800  1.0000
  Pm  Pm1       1.0  0.25000  0.08760  0.25000  1.0000
  Pm  Pm2       1.0  0.91200  0.41200  0.25000  1.0000
  Pm  Pm3       1.0  0.58800  0.75000  0.25000  1.0000
  Pm  Pm4       1.0  0.41200  0.25000  0.75000  1.0000
  Pm  Pm5       1.0  0.08760  0.58800  0.75000  1.0000
  Pm  Pm6       1.0  0.75000  0.91200  0.75000  1.0000
