data_image0
_chemical_formula_structural       N4U6
_chemical_formula_sum              "N4 U6"
_cell_length_a       5.5862
_cell_length_b       5.5862
_cell_length_c       6.76293
_cell_angle_alpha    114.394
_cell_angle_beta     65.6065
_cell_angle_gamma    120

_space_group_name_H-M_alt    "P 1"
_space_group_IT_number       1

loop_
  _space_group_symop_operation_xyz
  'x, y, z'

loop_
  _atom_site_type_symbol
  _atom_site_label
  _atom_site_symmetry_multiplicity
  _atom_site_fract_x
  _atom_site_fract_y
  _atom_site_fract_z
  _atom_site_occupancy
  N   N1        1.0  0.33200  0.66800  0.00324  1.0000
  N   N2        1.0  0.16800  0.83200  0.49700  1.0000
  N   N3        1.0  0.83200  0.16800  0.50300  1.0000
  N   N4        1.0  0.66800  0.33200  0.99700  1.0000
  U   U1        1.0  0.25000  0.08690  0.25000  1.0000
  U   U2        1.0  0.91300  0.41300  0.25000  1.0000
  U   U3        1.0  0.58700  0.75000  0.25000  1.0000
  U   U4        1.0  0.41300  0.25000  0.75000  1.0000
  U   U5        1.0  0.08690  0.58700  0.75000  1.0000
  U   U6        1.0  0.75000  0.91300  0.75000  1.0000
