data_image0
_chemical_formula_structural       Ag2Cs2F6
_chemical_formula_sum              "Ag2 Cs2 F6"
_cell_length_a       6.19224
_cell_length_b       6.19224
_cell_length_c       6.19224
_cell_angle_alpha    118.762
_cell_angle_beta     92.1578
_cell_angle_gamma    118.762

_space_group_name_H-M_alt    "P 1"
_space_group_IT_number       1

loop_
  _space_group_symop_operation_xyz
  'x, y, z'

loop_
  _atom_site_type_symbol
  _atom_site_label
  _atom_site_symmetry_multiplicity
  _atom_site_fract_x
  _atom_site_fract_y
  _atom_site_fract_z
  _atom_site_occupancy
  Ag  Ag1       1.0  0.50000  0.50000  0.00000  1.0000
  Ag  Ag2       1.0  0.00000  0.50000  0.50000  1.0000
  Cs  Cs1       1.0  0.25000  0.00000  0.25000  1.0000
  Cs  Cs2       1.0  0.75000  0.00000  0.75000  1.0000
  F   F1        1.0  0.74100  0.98100  0.24100  1.0000
  F   F2        1.0  0.75000  0.50000  0.25000  1.0000
  F   F3        1.0  0.24100  0.50000  0.25900  1.0000
  F   F4        1.0  0.75900  0.50000  0.74100  1.0000
  F   F5        1.0  0.25000  0.50000  0.75000  1.0000
  F   F6        1.0  0.25900  0.01880  0.75900  1.0000
