data_image0
_chemical_formula_structural       MnU
_chemical_formula_sum              "Mn1 U1"
_cell_length_a       4.55882
_cell_length_b       4.55882
_cell_length_c       4.55882
_cell_angle_alpha    38.1008
_cell_angle_beta     38.1008
_cell_angle_gamma    38.1007

_space_group_name_H-M_alt    "P 1"
_space_group_IT_number       1

loop_
  _space_group_symop_operation_xyz
  'x, y, z'

loop_
  _atom_site_type_symbol
  _atom_site_label
  _atom_site_symmetry_multiplicity
  _atom_site_fract_x
  _atom_site_fract_y
  _atom_site_fract_z
  _atom_site_occupancy
  Mn  Mn1       1.0  0.00000  0.00000  0.00000  1.0000
  U   U1        1.0  0.50000  0.50000  0.50000  1.0000
