data_image0
_chemical_formula_structural       In2Se4Tl2
_chemical_formula_sum              "In2 Se4 Tl2"
_cell_length_a       6.75046
_cell_length_b       6.75046
_cell_length_c       6.75046
_cell_angle_alpha    118.004
_cell_angle_beta     105.381
_cell_angle_gamma    105.381

_space_group_name_H-M_alt    "P 1"
_space_group_IT_number       1

loop_
  _space_group_symop_operation_xyz
  'x, y, z'

loop_
  _atom_site_type_symbol
  _atom_site_label
  _atom_site_symmetry_multiplicity
  _atom_site_fract_x
  _atom_site_fract_y
  _atom_site_fract_z
  _atom_site_occupancy
  In  In1       1.0  0.50000  0.75000  0.25000  1.0000
  In  In2       1.0  0.50000  0.25000  0.75000  1.0000
  Se  Se1       1.0  0.50000  0.32700  0.17300  1.0000
  Se  Se2       1.0  0.15400  0.82700  0.32700  1.0000
  Se  Se3       1.0  0.84600  0.17300  0.67300  1.0000
  Se  Se4       1.0  0.50000  0.67300  0.82700  1.0000
  Tl  Tl1       1.0  0.00000  0.25000  0.25000  1.0000
  Tl  Tl2       1.0  0.00000  0.75000  0.75000  1.0000
