data_image0
_chemical_formula_structural       Ge4Pt4Sm2
_chemical_formula_sum              "Ge4 Pt4 Sm2"
_cell_length_a       4.35615
_cell_length_b       4.35615
_cell_length_c       10.0811
_cell_angle_alpha    90
_cell_angle_beta     90
_cell_angle_gamma    90

_space_group_name_H-M_alt    "P 1"
_space_group_IT_number       1

loop_
  _space_group_symop_operation_xyz
  'x, y, z'

loop_
  _atom_site_type_symbol
  _atom_site_label
  _atom_site_symmetry_multiplicity
  _atom_site_fract_x
  _atom_site_fract_y
  _atom_site_fract_z
  _atom_site_occupancy
  Ge  Ge1       1.0  0.25000  0.25000  0.13100  1.0000
  Ge  Ge2       1.0  0.75000  0.25000  0.50000  1.0000
  Ge  Ge3       1.0  0.25000  0.75000  0.50000  1.0000
  Ge  Ge4       1.0  0.75000  0.75000  0.86900  1.0000
  Pt  Pt1       1.0  0.75000  0.25000  0.00000  1.0000
  Pt  Pt2       1.0  0.25000  0.75000  0.00000  1.0000
  Pt  Pt3       1.0  0.25000  0.25000  0.37400  1.0000
  Pt  Pt4       1.0  0.75000  0.75000  0.62600  1.0000
  Sm  Sm1       1.0  0.75000  0.75000  0.25100  1.0000
  Sm  Sm2       1.0  0.25000  0.25000  0.74900  1.0000
