data_image0
_chemical_formula_structural       O6V4
_chemical_formula_sum              "O6 V4"
_cell_length_a       5.0622
_cell_length_b       5.0622
_cell_length_c       5.51387
_cell_angle_alpha    62.6747
_cell_angle_beta     117.325
_cell_angle_gamma    120

_space_group_name_H-M_alt    "P 1"
_space_group_IT_number       1

loop_
  _space_group_symop_operation_xyz
  'x, y, z'

loop_
  _atom_site_type_symbol
  _atom_site_label
  _atom_site_symmetry_multiplicity
  _atom_site_fract_x
  _atom_site_fract_y
  _atom_site_fract_z
  _atom_site_occupancy
  O   O1        1.0  0.05460  0.25000  0.25000  1.0000
  O   O2        1.0  0.75000  0.55500  0.25000  1.0000
  O   O3        1.0  0.44500  0.94500  0.25000  1.0000
  O   O4        1.0  0.55500  0.05460  0.75000  1.0000
  O   O5        1.0  0.25000  0.44500  0.75000  1.0000
  O   O6        1.0  0.94500  0.75000  0.75000  1.0000
  V   V1        1.0  0.35100  0.64900  0.05150  1.0000
  V   V2        1.0  0.14900  0.85100  0.44800  1.0000
  V   V3        1.0  0.85100  0.14900  0.55200  1.0000
  V   V4        1.0  0.64900  0.35100  0.94800  1.0000
