data_image0
_chemical_formula_structural       MnN3U2
_chemical_formula_sum              "Mn1 N3 U2"
_cell_length_a       3.29144
_cell_length_b       3.7404
_cell_length_c       6.52861
_cell_angle_alpha    106.646
_cell_angle_beta     104.601
_cell_angle_gamma    90

_space_group_name_H-M_alt    "P 1"
_space_group_IT_number       1

loop_
  _space_group_symop_operation_xyz
  'x, y, z'

loop_
  _atom_site_type_symbol
  _atom_site_label
  _atom_site_symmetry_multiplicity
  _atom_site_fract_x
  _atom_site_fract_y
  _atom_site_fract_z
  _atom_site_occupancy
  Mn  Mn1       1.0  0.00000  0.00000  0.00000  1.0000
  N   N1        1.0  0.00000  0.50000  0.00000  1.0000
  N   N2        1.0  0.16800  0.16800  0.33700  1.0000
  N   N3        1.0  0.83200  0.83200  0.66300  1.0000
  U   U1        1.0  0.64400  0.64400  0.28800  1.0000
  U   U2        1.0  0.35600  0.35600  0.71200  1.0000
