data_image0
_chemical_formula_structural       Bi12Li12O48Te8
_chemical_formula_sum              "Bi12 Li12 O48 Te8"
_cell_length_a       10.9084
_cell_length_b       10.9084
_cell_length_c       10.9084
_cell_angle_alpha    109.471
_cell_angle_beta     109.471
_cell_angle_gamma    109.471

_space_group_name_H-M_alt    "P 1"
_space_group_IT_number       1

loop_
  _space_group_symop_operation_xyz
  'x, y, z'

loop_
  _atom_site_type_symbol
  _atom_site_label
  _atom_site_symmetry_multiplicity
  _atom_site_fract_x
  _atom_site_fract_y
  _atom_site_fract_z
  _atom_site_occupancy
  Bi  Bi1       1.0  0.37500  0.25000  0.12500  1.0000
  Bi  Bi2       1.0  0.25000  0.87500  0.12500  1.0000
  Bi  Bi3       1.0  0.87500  0.12500  0.25000  1.0000
  Bi  Bi4       1.0  0.37500  0.62500  0.25000  1.0000
  Bi  Bi5       1.0  0.12500  0.75000  0.37500  1.0000
  Bi  Bi6       1.0  0.75000  0.62500  0.37500  1.0000
  Bi  Bi7       1.0  0.87500  0.25000  0.62500  1.0000
  Bi  Bi8       1.0  0.25000  0.37500  0.62500  1.0000
  Bi  Bi9       1.0  0.62500  0.37500  0.75000  1.0000
  Bi  Bi10      1.0  0.12500  0.87500  0.75000  1.0000
  Bi  Bi11      1.0  0.62500  0.75000  0.87500  1.0000
  Bi  Bi12      1.0  0.75000  0.12500  0.87500  1.0000
  Li  Li1       1.0  0.75000  0.37500  0.12500  1.0000
  Li  Li2       1.0  0.87500  0.75000  0.12500  1.0000
  Li  Li3       1.0  0.12500  0.37500  0.25000  1.0000
  Li  Li4       1.0  0.62500  0.87500  0.25000  1.0000
  Li  Li5       1.0  0.25000  0.12500  0.37500  1.0000
  Li  Li6       1.0  0.62500  0.25000  0.37500  1.0000
  Li  Li7       1.0  0.37500  0.75000  0.62500  1.0000
  Li  Li8       1.0  0.75000  0.87500  0.62500  1.0000
  Li  Li9       1.0  0.37500  0.12500  0.75000  1.0000
  Li  Li10      1.0  0.87500  0.62500  0.75000  1.0000
  Li  Li11      1.0  0.25000  0.62500  0.87500  1.0000
  Li  Li12      1.0  0.12500  0.25000  0.87500  1.0000
  O   O1        1.0  0.19400  0.61400  0.02120  1.0000
  O   O2        1.0  0.32700  0.40800  0.02120  1.0000
  O   O3        1.0  0.69400  0.17300  0.08080  1.0000
  O   O4        1.0  0.88600  0.90800  0.08080  1.0000
  O   O5        1.0  0.97900  0.17300  0.09240  1.0000
  O   O6        1.0  0.61400  0.91900  0.09240  1.0000
  O   O7        1.0  0.59200  0.41900  0.11400  1.0000
  O   O8        1.0  0.02120  0.69400  0.11400  1.0000
  O   O9        1.0  0.19400  0.08080  0.17300  1.0000
  O   O10       1.0  0.47900  0.09240  0.17300  1.0000
  O   O11       1.0  0.58100  0.67300  0.19400  1.0000
  O   O12       1.0  0.11400  0.52100  0.19400  1.0000
  O   O13       1.0  0.47900  0.88600  0.30600  1.0000
  O   O14       1.0  0.32700  0.41900  0.30600  1.0000
  O   O15       1.0  0.90800  0.52100  0.32700  1.0000
  O   O16       1.0  0.91900  0.80600  0.32700  1.0000
  O   O17       1.0  0.58100  0.40800  0.38600  1.0000
  O   O18       1.0  0.30600  0.97900  0.38600  1.0000
  O   O19       1.0  0.82700  0.02120  0.40800  1.0000
  O   O20       1.0  0.08080  0.38600  0.40800  1.0000
  O   O21       1.0  0.82700  0.30600  0.41900  1.0000
  O   O22       1.0  0.09240  0.11400  0.41900  1.0000
  O   O23       1.0  0.38600  0.80600  0.47900  1.0000
  O   O24       1.0  0.59200  0.67300  0.47900  1.0000
  O   O25       1.0  0.61400  0.19400  0.52100  1.0000
  O   O26       1.0  0.40800  0.32700  0.52100  1.0000
  O   O27       1.0  0.17300  0.69400  0.58100  1.0000
  O   O28       1.0  0.90800  0.88600  0.58100  1.0000
  O   O29       1.0  0.91900  0.61400  0.59200  1.0000
  O   O30       1.0  0.17300  0.97900  0.59200  1.0000
  O   O31       1.0  0.69400  0.02120  0.61400  1.0000
  O   O32       1.0  0.41900  0.59200  0.61400  1.0000
  O   O33       1.0  0.09230  0.47900  0.67300  1.0000
  O   O34       1.0  0.08080  0.19400  0.67300  1.0000
  O   O35       1.0  0.52100  0.11400  0.69400  1.0000
  O   O36       1.0  0.67300  0.58100  0.69400  1.0000
  O   O37       1.0  0.41900  0.32700  0.80600  1.0000
  O   O38       1.0  0.88600  0.47900  0.80600  1.0000
  O   O39       1.0  0.80600  0.91900  0.82700  1.0000
  O   O40       1.0  0.52100  0.90800  0.82700  1.0000
  O   O41       1.0  0.40800  0.58100  0.88600  1.0000
  O   O42       1.0  0.97900  0.30600  0.88600  1.0000
  O   O43       1.0  0.38600  0.08080  0.90800  1.0000
  O   O44       1.0  0.02120  0.82700  0.90800  1.0000
  O   O45       1.0  0.11400  0.09240  0.91900  1.0000
  O   O46       1.0  0.30600  0.82700  0.91900  1.0000
  O   O47       1.0  0.67300  0.59200  0.97900  1.0000
  O   O48       1.0  0.80600  0.38600  0.97900  1.0000
  Te  Te1       1.0  0.00000  0.00000  0.00000  1.0000
  Te  Te2       1.0  0.50000  0.00000  0.00000  1.0000
  Te  Te3       1.0  0.00000  0.50000  0.00000  1.0000
  Te  Te4       1.0  0.50000  0.50000  0.00000  1.0000
  Te  Te5       1.0  0.00000  0.00000  0.50000  1.0000
  Te  Te6       1.0  0.50000  0.00000  0.50000  1.0000
  Te  Te7       1.0  0.00000  0.50000  0.50000  1.0000
  Te  Te8       1.0  0.50000  0.50000  0.50000  1.0000
