data_image0
_chemical_formula_structural       Li12O48Se8Y12
_chemical_formula_sum              "Li12 O48 Se8 Y12"
_cell_length_a       10.4217
_cell_length_b       10.4217
_cell_length_c       10.4217
_cell_angle_alpha    109.471
_cell_angle_beta     109.471
_cell_angle_gamma    109.471

_space_group_name_H-M_alt    "P 1"
_space_group_IT_number       1

loop_
  _space_group_symop_operation_xyz
  'x, y, z'

loop_
  _atom_site_type_symbol
  _atom_site_label
  _atom_site_symmetry_multiplicity
  _atom_site_fract_x
  _atom_site_fract_y
  _atom_site_fract_z
  _atom_site_occupancy
  Li  Li1       1.0  0.75000  0.37500  0.12500  1.0000
  Li  Li2       1.0  0.87500  0.75000  0.12500  1.0000
  Li  Li3       1.0  0.12500  0.37500  0.25000  1.0000
  Li  Li4       1.0  0.62500  0.87500  0.25000  1.0000
  Li  Li5       1.0  0.62500  0.25000  0.37500  1.0000
  Li  Li6       1.0  0.25000  0.12500  0.37500  1.0000
  Li  Li7       1.0  0.75000  0.87500  0.62500  1.0000
  Li  Li8       1.0  0.37500  0.75000  0.62500  1.0000
  Li  Li9       1.0  0.37500  0.12500  0.75000  1.0000
  Li  Li10      1.0  0.87500  0.62500  0.75000  1.0000
  Li  Li11      1.0  0.12500  0.25000  0.87500  1.0000
  Li  Li12      1.0  0.25000  0.62500  0.87500  1.0000
  O   O1        1.0  0.33200  0.40800  0.02170  1.0000
  O   O2        1.0  0.19000  0.61400  0.02170  1.0000
  O   O3        1.0  0.69000  0.16800  0.07650  1.0000
  O   O4        1.0  0.88600  0.90800  0.07650  1.0000
  O   O5        1.0  0.61400  0.92400  0.09180  1.0000
  O   O6        1.0  0.97800  0.16800  0.09180  1.0000
  O   O7        1.0  0.02170  0.69000  0.11400  1.0000
  O   O8        1.0  0.59200  0.42400  0.11400  1.0000
  O   O9        1.0  0.19000  0.07650  0.16800  1.0000
  O   O10       1.0  0.47800  0.09180  0.16800  1.0000
  O   O11       1.0  0.57600  0.66800  0.19000  1.0000
  O   O12       1.0  0.11400  0.52200  0.19000  1.0000
  O   O13       1.0  0.33200  0.42400  0.31000  1.0000
  O   O14       1.0  0.47800  0.88600  0.31000  1.0000
  O   O15       1.0  0.90800  0.52200  0.33200  1.0000
  O   O16       1.0  0.92400  0.81000  0.33200  1.0000
  O   O17       1.0  0.57600  0.40800  0.38600  1.0000
  O   O18       1.0  0.31000  0.97800  0.38600  1.0000
  O   O19       1.0  0.83200  0.02170  0.40800  1.0000
  O   O20       1.0  0.07650  0.38600  0.40800  1.0000
  O   O21       1.0  0.09180  0.11400  0.42400  1.0000
  O   O22       1.0  0.83200  0.31000  0.42400  1.0000
  O   O23       1.0  0.59200  0.66800  0.47800  1.0000
  O   O24       1.0  0.38600  0.81000  0.47800  1.0000
  O   O25       1.0  0.61400  0.19000  0.52200  1.0000
  O   O26       1.0  0.40800  0.33200  0.52200  1.0000
  O   O27       1.0  0.16800  0.69000  0.57600  1.0000
  O   O28       1.0  0.90800  0.88600  0.57600  1.0000
  O   O29       1.0  0.92400  0.61400  0.59200  1.0000
  O   O30       1.0  0.16800  0.97800  0.59200  1.0000
  O   O31       1.0  0.69000  0.02170  0.61400  1.0000
  O   O32       1.0  0.42400  0.59200  0.61400  1.0000
  O   O33       1.0  0.07650  0.19000  0.66800  1.0000
  O   O34       1.0  0.09180  0.47800  0.66800  1.0000
  O   O35       1.0  0.52200  0.11400  0.69000  1.0000
  O   O36       1.0  0.66800  0.57600  0.69000  1.0000
  O   O37       1.0  0.42400  0.33200  0.81000  1.0000
  O   O38       1.0  0.88600  0.47800  0.81000  1.0000
  O   O39       1.0  0.52200  0.90800  0.83200  1.0000
  O   O40       1.0  0.81000  0.92400  0.83200  1.0000
  O   O41       1.0  0.40800  0.57600  0.88600  1.0000
  O   O42       1.0  0.97800  0.31000  0.88600  1.0000
  O   O43       1.0  0.38600  0.07650  0.90800  1.0000
  O   O44       1.0  0.02170  0.83200  0.90800  1.0000
  O   O45       1.0  0.31000  0.83200  0.92400  1.0000
  O   O46       1.0  0.11400  0.09180  0.92400  1.0000
  O   O47       1.0  0.81000  0.38600  0.97800  1.0000
  O   O48       1.0  0.66800  0.59200  0.97800  1.0000
  Se  Se1       1.0  0.00000  0.00000  0.00000  1.0000
  Se  Se2       1.0  0.50000  0.00000  0.00000  1.0000
  Se  Se3       1.0  0.00000  0.50000  0.00000  1.0000
  Se  Se4       1.0  0.50000  0.50000  0.00000  1.0000
  Se  Se5       1.0  0.00000  0.00000  0.50000  1.0000
  Se  Se6       1.0  0.50000  0.00000  0.50000  1.0000
  Se  Se7       1.0  1.00000  0.50000  0.50000  1.0000
  Se  Se8       1.0  0.50000  0.50000  0.50000  1.0000
  Y   Y1        1.0  0.25000  0.87500  0.12500  1.0000
  Y   Y2        1.0  0.37500  0.25000  0.12500  1.0000
  Y   Y3        1.0  0.87500  0.12500  0.25000  1.0000
  Y   Y4        1.0  0.37500  0.62500  0.25000  1.0000
  Y   Y5        1.0  0.75000  0.62500  0.37500  1.0000
  Y   Y6        1.0  0.12500  0.75000  0.37500  1.0000
  Y   Y7        1.0  0.25000  0.37500  0.62500  1.0000
  Y   Y8        1.0  0.87500  0.25000  0.62500  1.0000
  Y   Y9        1.0  0.12500  0.87500  0.75000  1.0000
  Y   Y10       1.0  0.62500  0.37500  0.75000  1.0000
  Y   Y11       1.0  0.75000  0.12500  0.87500  1.0000
  Y   Y12       1.0  0.62500  0.75000  0.87500  1.0000
