data_image0
_chemical_formula_structural       Se2TlYb
_chemical_formula_sum              "Se2 Tl1 Yb1"
_cell_length_a       4.23627
_cell_length_b       4.23627
_cell_length_c       7.48345
_cell_angle_alpha    90
_cell_angle_beta     106.442
_cell_angle_gamma    120

_space_group_name_H-M_alt    "P 1"
_space_group_IT_number       1

loop_
  _space_group_symop_operation_xyz
  'x, y, z'

loop_
  _atom_site_type_symbol
  _atom_site_label
  _atom_site_symmetry_multiplicity
  _atom_site_fract_x
  _atom_site_fract_y
  _atom_site_fract_z
  _atom_site_occupancy
  Se  Se1       1.0  0.48700  0.74400  0.23100  1.0000
  Se  Se2       1.0  0.51300  0.25600  0.76900  1.0000
  Tl  Tl1       1.0  0.00000  0.50000  0.50000  1.0000
  Yb  Yb1       1.0  0.00000  0.00000  0.00000  1.0000
