data_image0
_chemical_formula_structural       O4Ti2
_chemical_formula_sum              "O4 Ti2"
_cell_length_a       4.60648
_cell_length_b       4.60648
_cell_length_c       2.95723
_cell_angle_alpha    90
_cell_angle_beta     90
_cell_angle_gamma    90

_space_group_name_H-M_alt    "P 1"
_space_group_IT_number       1

loop_
  _space_group_symop_operation_xyz
  'x, y, z'

loop_
  _atom_site_type_symbol
  _atom_site_label
  _atom_site_symmetry_multiplicity
  _atom_site_fract_x
  _atom_site_fract_y
  _atom_site_fract_z
  _atom_site_occupancy
  O   O1        1.0  0.30400  0.30400  0.00000  1.0000
  O   O2        1.0  0.69600  0.69600  0.00000  1.0000
  O   O3        1.0  0.80400  0.19600  0.50000  1.0000
  O   O4        1.0  0.19600  0.80400  0.50000  1.0000
  Ti  Ti1       1.0  0.00000  0.00000  0.00000  1.0000
  Ti  Ti2       1.0  0.50000  0.50000  0.50000  1.0000
