data_image0
_chemical_formula_structural       Fe2Li2O12Si4
_chemical_formula_sum              "Fe2 Li2 O12 Si4"
_cell_length_a       5.29232
_cell_length_b       6.46492
_cell_length_c       6.46492
_cell_angle_alpha    96.5378
_cell_angle_beta     104.797
_cell_angle_gamma    75.203

_space_group_name_H-M_alt    "P 1"
_space_group_IT_number       1

loop_
  _space_group_symop_operation_xyz
  'x, y, z'

loop_
  _atom_site_type_symbol
  _atom_site_label
  _atom_site_symmetry_multiplicity
  _atom_site_fract_x
  _atom_site_fract_y
  _atom_site_fract_z
  _atom_site_occupancy
  Fe  Fe1       1.0  0.75000  0.09840  0.09840  1.0000
  Fe  Fe2       1.0  0.25000  0.90200  0.90200  1.0000
  Li  Li1       1.0  0.25000  0.26400  0.26400  1.0000
  Li  Li2       1.0  0.75000  0.73600  0.73600  1.0000
  O   O1        1.0  0.65100  0.79600  0.02720  1.0000
  O   O2        1.0  0.83000  0.37100  0.10300  1.0000
  O   O3        1.0  0.15100  0.97300  0.20400  1.0000
  O   O4        1.0  0.05620  0.64100  0.35800  1.0000
  O   O5        1.0  0.55600  0.64200  0.35900  1.0000
  O   O6        1.0  0.67000  0.10300  0.37100  1.0000
  O   O7        1.0  0.33000  0.89700  0.62900  1.0000
  O   O8        1.0  0.44400  0.35800  0.64100  1.0000
  O   O9        1.0  0.94400  0.35900  0.64200  1.0000
  O   O10       1.0  0.84900  0.02720  0.79600  1.0000
  O   O11       1.0  0.17000  0.62900  0.89700  1.0000
  O   O12       1.0  0.34900  0.20400  0.97300  1.0000
  Si  Si1       1.0  0.76700  0.61200  0.20600  1.0000
  Si  Si2       1.0  0.26700  0.79400  0.38800  1.0000
  Si  Si3       1.0  0.73300  0.20600  0.61200  1.0000
  Si  Si4       1.0  0.23300  0.38800  0.79400  1.0000
