data_image0
_chemical_formula_structural       Ba4O12Ru3Zr
_chemical_formula_sum              "Ba4 O12 Ru3 Zr1"
_cell_length_a       5.8047
_cell_length_b       5.8047
_cell_length_c       10.2248
_cell_angle_alpha    73.5097
_cell_angle_beta     106.49
_cell_angle_gamma    120

_space_group_name_H-M_alt    "P 1"
_space_group_IT_number       1

loop_
  _space_group_symop_operation_xyz
  'x, y, z'

loop_
  _atom_site_type_symbol
  _atom_site_label
  _atom_site_symmetry_multiplicity
  _atom_site_fract_x
  _atom_site_fract_y
  _atom_site_fract_z
  _atom_site_occupancy
  Ba  Ba1       1.0  0.71300  0.28700  0.14000  1.0000
  Ba  Ba2       1.0  0.12900  0.87100  0.38700  1.0000
  Ba  Ba3       1.0  0.87100  0.12900  0.61300  1.0000
  Ba  Ba4       1.0  0.28700  0.71300  0.86000  1.0000
  O   O1        1.0  0.21100  0.29900  0.12300  1.0000
  O   O2        1.0  0.21100  0.78900  0.12300  1.0000
  O   O3        1.0  0.70100  0.78900  0.12300  1.0000
  O   O4        1.0  0.14100  0.38600  0.37000  1.0000
  O   O5        1.0  0.61400  0.38600  0.37000  1.0000
  O   O6        1.0  0.61400  0.85900  0.37000  1.0000
  O   O7        1.0  0.38600  0.14100  0.63000  1.0000
  O   O8        1.0  0.85900  0.61400  0.63000  1.0000
  O   O9        1.0  0.38600  0.61400  0.63000  1.0000
  O   O10       1.0  0.29900  0.21100  0.87700  1.0000
  O   O11       1.0  0.78900  0.21100  0.87700  1.0000
  O   O12       1.0  0.78900  0.70100  0.87700  1.0000
  Ru  Ru1       1.0  0.41300  0.58700  0.23800  1.0000
  Ru  Ru2       1.0  0.50000  0.50000  0.50000  1.0000
  Ru  Ru3       1.0  0.58700  0.41300  0.76200  1.0000
  Zr  Zr1       1.0  0.00000  0.00000  0.00000  1.0000
