data_image0
_chemical_formula_structural       B4Ga2Rh10Sc4
_chemical_formula_sum              "B4 Ga2 Rh10 Sc4"
_cell_length_a       9.32052
_cell_length_b       9.32052
_cell_length_c       3.08076
_cell_angle_alpha    90
_cell_angle_beta     90
_cell_angle_gamma    90

_space_group_name_H-M_alt    "P 1"
_space_group_IT_number       1

loop_
  _space_group_symop_operation_xyz
  'x, y, z'

loop_
  _atom_site_type_symbol
  _atom_site_label
  _atom_site_symmetry_multiplicity
  _atom_site_fract_x
  _atom_site_fract_y
  _atom_site_fract_z
  _atom_site_occupancy
  B   B1        1.0  0.37500  0.12500  0.00000  1.0000
  B   B2        1.0  0.87500  0.37500  0.00000  1.0000
  B   B3        1.0  0.12500  0.62500  0.00000  1.0000
  B   B4        1.0  0.62500  0.87500  0.00000  1.0000
  Ga  Ga1       1.0  0.00000  0.00000  0.00000  1.0000
  Ga  Ga2       1.0  0.50000  0.50000  0.00000  1.0000
  Rh  Rh1       1.0  0.50000  0.00000  0.50000  1.0000
  Rh  Rh2       1.0  0.21600  0.07090  0.50000  1.0000
  Rh  Rh3       1.0  0.92900  0.21600  0.50000  1.0000
  Rh  Rh4       1.0  0.42900  0.28400  0.50000  1.0000
  Rh  Rh5       1.0  0.71600  0.42900  0.50000  1.0000
  Rh  Rh6       1.0  0.00000  0.50000  0.50000  1.0000
  Rh  Rh7       1.0  0.28400  0.57100  0.50000  1.0000
  Rh  Rh8       1.0  0.57100  0.71600  0.50000  1.0000
  Rh  Rh9       1.0  0.07090  0.78400  0.50000  1.0000
  Rh  Rh10      1.0  0.78400  0.92900  0.50000  1.0000
  Sc  Sc1       1.0  0.67500  0.17500  0.00000  1.0000
  Sc  Sc2       1.0  0.17500  0.32500  0.00000  1.0000
  Sc  Sc3       1.0  0.82500  0.67500  0.00000  1.0000
  Sc  Sc4       1.0  0.32500  0.82500  0.00000  1.0000
