data_image0
_chemical_formula_structural       Cr4S12Sm4
_chemical_formula_sum              "Cr4 S12 Sm4"
_cell_length_a       7.7185
_cell_length_b       3.75809
_cell_length_c       12.9178
_cell_angle_alpha    90
_cell_angle_beta     90
_cell_angle_gamma    90

_space_group_name_H-M_alt    "P 1"
_space_group_IT_number       1

loop_
  _space_group_symop_operation_xyz
  'x, y, z'

loop_
  _atom_site_type_symbol
  _atom_site_label
  _atom_site_symmetry_multiplicity
  _atom_site_fract_x
  _atom_site_fract_y
  _atom_site_fract_z
  _atom_site_occupancy
  Cr  Cr1       1.0  0.66300  0.75000  0.05120  1.0000
  Cr  Cr2       1.0  0.16300  0.75000  0.44900  1.0000
  Cr  Cr3       1.0  0.83700  0.25000  0.55100  1.0000
  Cr  Cr4       1.0  0.33700  0.25000  0.94900  1.0000
  S   S1        1.0  0.15700  0.75000  0.00624  1.0000
  S   S2        1.0  0.48900  0.25000  0.10700  1.0000
  S   S3        1.0  0.80800  0.75000  0.21300  1.0000
  S   S4        1.0  0.30800  0.75000  0.28700  1.0000
  S   S5        1.0  0.98900  0.25000  0.39300  1.0000
  S   S6        1.0  0.65700  0.75000  0.49400  1.0000
  S   S7        1.0  0.34300  0.25000  0.50600  1.0000
  S   S8        1.0  0.01060  0.75000  0.60700  1.0000
  S   S9        1.0  0.69200  0.25000  0.71300  1.0000
  S   S10       1.0  0.19200  0.25000  0.78700  1.0000
  S   S11       1.0  0.51100  0.75000  0.89300  1.0000
  S   S12       1.0  0.84300  0.25000  0.99400  1.0000
  Sm  Sm1       1.0  0.08990  0.25000  0.17200  1.0000
  Sm  Sm2       1.0  0.59000  0.25000  0.32800  1.0000
  Sm  Sm3       1.0  0.41000  0.75000  0.67200  1.0000
  Sm  Sm4       1.0  0.91000  0.75000  0.82800  1.0000
