data_image0
_chemical_formula_structural       Ba2LaO6Ta
_chemical_formula_sum              "Ba2 La1 O6 Ta1"
_cell_length_a       6.08379
_cell_length_b       6.08379
_cell_length_c       6.08379
_cell_angle_alpha    60.5997
_cell_angle_beta     60.5998
_cell_angle_gamma    60.5998

_space_group_name_H-M_alt    "P 1"
_space_group_IT_number       1

loop_
  _space_group_symop_operation_xyz
  'x, y, z'

loop_
  _atom_site_type_symbol
  _atom_site_label
  _atom_site_symmetry_multiplicity
  _atom_site_fract_x
  _atom_site_fract_y
  _atom_site_fract_z
  _atom_site_occupancy
  Ba  Ba1       1.0  0.25200  0.25200  0.25200  1.0000
  Ba  Ba2       1.0  0.74800  0.74800  0.74800  1.0000
  La  La1       1.0  0.00000  0.00000  0.00000  1.0000
  O   O1        1.0  0.32900  0.72500  0.21400  1.0000
  O   O2        1.0  0.78600  0.67100  0.27500  1.0000
  O   O3        1.0  0.72500  0.21400  0.32900  1.0000
  O   O4        1.0  0.27500  0.78600  0.67100  1.0000
  O   O5        1.0  0.21400  0.32900  0.72500  1.0000
  O   O6        1.0  0.67100  0.27500  0.78600  1.0000
  Ta  Ta1       1.0  0.50000  0.50000  0.50000  1.0000
