data_image0
_chemical_formula_structural       B2K3O12Ta3
_chemical_formula_sum              "B2 K3 O12 Ta3"
_cell_length_a       8.80814
_cell_length_b       8.80814
_cell_length_c       3.9082
_cell_angle_alpha    90
_cell_angle_beta     90
_cell_angle_gamma    120

_space_group_name_H-M_alt    "P 1"
_space_group_IT_number       1

loop_
  _space_group_symop_operation_xyz
  'x, y, z'

loop_
  _atom_site_type_symbol
  _atom_site_label
  _atom_site_symmetry_multiplicity
  _atom_site_fract_x
  _atom_site_fract_y
  _atom_site_fract_z
  _atom_site_occupancy
  B   B1        1.0  0.66700  0.33300  0.00000  1.0000
  B   B2        1.0  0.33300  0.66700  0.00000  1.0000
  K   K1        1.0  0.40400  1.00000  0.50000  1.0000
  K   K2        1.0  0.00000  0.40400  0.50000  1.0000
  K   K3        1.0  0.59600  0.59600  0.50000  1.0000
  O   O1        1.0  0.18200  1.00000  0.00000  1.0000
  O   O2        1.0  0.00000  0.18200  0.00000  1.0000
  O   O3        1.0  0.68400  0.18700  0.00000  1.0000
  O   O4        1.0  0.50400  0.31600  0.00000  1.0000
  O   O5        1.0  0.81300  0.49600  0.00000  1.0000
  O   O6        1.0  0.31600  0.50400  0.00000  1.0000
  O   O7        1.0  0.18700  0.68400  0.00000  1.0000
  O   O8        1.0  0.49600  0.81300  0.00000  1.0000
  O   O9        1.0  0.81800  0.81800  0.00000  1.0000
  O   O10       1.0  0.73700  0.00000  0.50000  1.0000
  O   O11       1.0  0.26300  0.26300  0.50000  1.0000
  O   O12       1.0  1.00000  0.73700  0.50000  1.0000
  Ta  Ta1       1.0  0.75300  0.00000  0.00000  1.0000
  Ta  Ta2       1.0  0.24700  0.24700  0.00000  1.0000
  Ta  Ta3       1.0  0.00000  0.75300  0.00000  1.0000
