data_image0
_chemical_formula_structural       B6BrK3O10
_chemical_formula_sum              "B6 Br1 K3 O10"
_cell_length_a       6.52044
_cell_length_b       6.52044
_cell_length_c       6.52044
_cell_angle_alpha    101.527
_cell_angle_beta     101.527
_cell_angle_gamma    101.527

_space_group_name_H-M_alt    "P 1"
_space_group_IT_number       1

loop_
  _space_group_symop_operation_xyz
  'x, y, z'

loop_
  _atom_site_type_symbol
  _atom_site_label
  _atom_site_symmetry_multiplicity
  _atom_site_fract_x
  _atom_site_fract_y
  _atom_site_fract_z
  _atom_site_occupancy
  B   B1        1.0  0.64200  0.64200  0.38100  1.0000
  B   B2        1.0  0.97100  0.51800  0.51800  1.0000
  B   B3        1.0  0.51800  0.97100  0.51800  1.0000
  B   B4        1.0  0.38100  0.64200  0.64200  1.0000
  B   B5        1.0  0.64200  0.38100  0.64200  1.0000
  B   B6        1.0  0.51800  0.51800  0.97100  1.0000
  Br  Br1       1.0  0.00290  0.00290  0.00290  1.0000
  K   K1        1.0  0.07130  0.52900  0.07130  1.0000
  K   K2        1.0  0.52900  0.07130  0.07130  1.0000
  K   K3        1.0  0.07130  0.07130  0.52900  1.0000
  O   O1        1.0  0.50400  0.50400  0.17600  1.0000
  O   O2        1.0  0.86800  0.63500  0.39900  1.0000
  O   O3        1.0  0.63500  0.86800  0.39900  1.0000
  O   O4        1.0  0.50400  0.17600  0.50400  1.0000
  O   O5        1.0  0.17600  0.50400  0.50400  1.0000
  O   O6        1.0  0.56500  0.56500  0.56500  1.0000
  O   O7        1.0  0.86800  0.39900  0.63500  1.0000
  O   O8        1.0  0.39900  0.86800  0.63500  1.0000
  O   O9        1.0  0.63500  0.39900  0.86800  1.0000
  O   O10       1.0  0.39900  0.63500  0.86800  1.0000
