data_image0
_chemical_formula_structural       O6Sr2TaY
_chemical_formula_sum              "O6 Sr2 Ta1 Y1"
_cell_length_a       5.80157
_cell_length_b       5.80157
_cell_length_c       5.87607
_cell_angle_alpha    119.582
_cell_angle_beta     119.582
_cell_angle_gamma    90

_space_group_name_H-M_alt    "P 1"
_space_group_IT_number       1

loop_
  _space_group_symop_operation_xyz
  'x, y, z'

loop_
  _atom_site_type_symbol
  _atom_site_label
  _atom_site_symmetry_multiplicity
  _atom_site_fract_x
  _atom_site_fract_y
  _atom_site_fract_z
  _atom_site_occupancy
  O   O1        1.0  0.32900  0.20100  0.00000  1.0000
  O   O2        1.0  0.79900  0.32900  0.00000  1.0000
  O   O3        1.0  0.20100  0.67100  0.00000  1.0000
  O   O4        1.0  0.67100  0.79900  0.00000  1.0000
  O   O5        1.0  0.73700  0.73700  0.47400  1.0000
  O   O6        1.0  0.26300  0.26300  0.52600  1.0000
  Sr  Sr1       1.0  0.75000  0.25000  0.50000  1.0000
  Sr  Sr2       1.0  0.25000  0.75000  0.50000  1.0000
  Ta  Ta1       1.0  0.50000  0.50000  0.00000  1.0000
  Y   Y1        1.0  0.00000  0.00000  0.00000  1.0000
