data_image0
_chemical_formula_structural       Ni4Sn2Zr4
_chemical_formula_sum              "Ni4 Sn2 Zr4"
_cell_length_a       7.09937
_cell_length_b       7.09937
_cell_length_c       3.42528
_cell_angle_alpha    90
_cell_angle_beta     90
_cell_angle_gamma    90

_space_group_name_H-M_alt    "P 1"
_space_group_IT_number       1

loop_
  _space_group_symop_operation_xyz
  'x, y, z'

loop_
  _atom_site_type_symbol
  _atom_site_label
  _atom_site_symmetry_multiplicity
  _atom_site_fract_x
  _atom_site_fract_y
  _atom_site_fract_z
  _atom_site_occupancy
  Ni  Ni1       1.0  0.62600  0.12600  0.00000  1.0000
  Ni  Ni2       1.0  0.12600  0.37400  0.00000  1.0000
  Ni  Ni3       1.0  0.87400  0.62600  0.00000  1.0000
  Ni  Ni4       1.0  0.37400  0.87400  0.00000  1.0000
  Sn  Sn1       1.0  0.00000  0.00000  0.00000  1.0000
  Sn  Sn2       1.0  0.50000  0.50000  0.00000  1.0000
  Zr  Zr1       1.0  0.33100  0.16900  0.50000  1.0000
  Zr  Zr2       1.0  0.83100  0.33100  0.50000  1.0000
  Zr  Zr3       1.0  0.16900  0.66900  0.50000  1.0000
  Zr  Zr4       1.0  0.66900  0.83100  0.50000  1.0000
