data_image0
_chemical_formula_structural       La4O12Y4
_chemical_formula_sum              "La4 O12 Y4"
_cell_length_a       6.04918
_cell_length_b       5.85437
_cell_length_c       8.42263
_cell_angle_alpha    90
_cell_angle_beta     90
_cell_angle_gamma    90

_space_group_name_H-M_alt    "P 1"
_space_group_IT_number       1

loop_
  _space_group_symop_operation_xyz
  'x, y, z'

loop_
  _atom_site_type_symbol
  _atom_site_label
  _atom_site_symmetry_multiplicity
  _atom_site_fract_x
  _atom_site_fract_y
  _atom_site_fract_z
  _atom_site_occupancy
  La  La1       1.0  0.05060  0.51300  0.52300  1.0000
  La  La2       1.0  0.94900  0.48700  0.02270  1.0000
  La  La3       1.0  0.44900  0.01280  0.02270  1.0000
  La  La4       1.0  0.55100  0.98700  0.52300  1.0000
  O   O1        1.0  0.06020  0.87000  0.02840  1.0000
  O   O2        1.0  0.94000  0.13000  0.52800  1.0000
  O   O3        1.0  0.44000  0.37000  0.52800  1.0000
  O   O4        1.0  0.56000  0.63000  0.02840  1.0000
  O   O5        1.0  0.32400  0.82100  0.71700  1.0000
  O   O6        1.0  0.67600  0.17900  0.21700  1.0000
  O   O7        1.0  0.17600  0.32100  0.21700  1.0000
  O   O8        1.0  0.82400  0.67900  0.71700  1.0000
  O   O9        1.0  0.29900  0.80600  0.35200  1.0000
  O   O10       1.0  0.70100  0.19400  0.85200  1.0000
  O   O11       1.0  0.20100  0.30600  0.85200  1.0000
  O   O12       1.0  0.79900  0.69400  0.35200  1.0000
  Y   Y1        1.0  0.00362  0.00000  0.77600  1.0000
  Y   Y2        1.0  0.99600  0.00018  0.27600  1.0000
  Y   Y3        1.0  0.49600  0.50000  0.27600  1.0000
  Y   Y4        1.0  0.50400  0.50000  0.77600  1.0000
