data_image0
_chemical_formula_structural       Ag2O8V4
_chemical_formula_sum              "Ag2 O8 V4"
_cell_length_a       6.19041
_cell_length_b       6.19041
_cell_length_c       6.19041
_cell_angle_alpha    121.103
_cell_angle_beta     88.1006
_cell_angle_gamma    121.103

_space_group_name_H-M_alt    "P 1"
_space_group_IT_number       1

loop_
  _space_group_symop_operation_xyz
  'x, y, z'

loop_
  _atom_site_type_symbol
  _atom_site_label
  _atom_site_symmetry_multiplicity
  _atom_site_fract_x
  _atom_site_fract_y
  _atom_site_fract_z
  _atom_site_occupancy
  Ag  Ag1       1.0  0.00000  0.00000  0.00000  1.0000
  Ag  Ag2       1.0  0.75000  0.50000  0.25000  1.0000
  O   O1        1.0  0.60300  0.78900  0.39200  1.0000
  O   O2        1.0  0.18600  0.78900  0.39700  1.0000
  O   O3        1.0  0.60800  0.21100  0.39700  1.0000
  O   O4        1.0  0.14700  0.28900  0.43600  1.0000
  O   O5        1.0  0.60300  0.21100  0.81400  1.0000
  O   O6        1.0  0.14200  0.28900  0.85300  1.0000
  O   O7        1.0  0.56400  0.71100  0.85300  1.0000
  O   O8        1.0  0.14700  0.71100  0.85800  1.0000
  V   V1        1.0  0.37500  0.75000  0.12500  1.0000
  V   V2        1.0  0.87500  0.25000  0.62500  1.0000
  V   V3        1.0  0.37500  0.25000  0.62500  1.0000
  V   V4        1.0  0.37500  0.75000  0.62500  1.0000
