data_image0
_chemical_formula_structural       C3P6V12
_chemical_formula_sum              "C3 P6 V12"
_cell_length_a       9.53068
_cell_length_b       9.53068
_cell_length_c       3.15224
_cell_angle_alpha    90
_cell_angle_beta     90
_cell_angle_gamma    120.006

_space_group_name_H-M_alt    "P 1"
_space_group_IT_number       1

loop_
  _space_group_symop_operation_xyz
  'x, y, z'

loop_
  _atom_site_type_symbol
  _atom_site_label
  _atom_site_symmetry_multiplicity
  _atom_site_fract_x
  _atom_site_fract_y
  _atom_site_fract_z
  _atom_site_occupancy
  C   C1        1.0  0.66900  1.00000  0.50000  1.0000
  C   C2        1.0  0.33100  0.33100  0.50000  1.0000
  C   C3        1.0  1.00000  0.66900  0.50000  1.0000
  P   P1        1.0  0.28200  0.00001  0.00000  1.0000
  P   P2        1.0  0.00001  0.28200  0.00000  1.0000
  P   P3        1.0  0.66700  0.33300  0.00000  1.0000
  P   P4        1.0  0.33300  0.66700  0.00000  1.0000
  P   P5        1.0  0.71800  0.71800  0.00000  1.0000
  P   P6        1.0  0.00000  0.00000  0.50000  1.0000
  V   V1        1.0  0.81300  1.00000  0.00000  1.0000
  V   V2        1.0  0.53400  0.00000  0.00000  1.0000
  V   V3        1.0  0.18700  0.18700  0.00000  1.0000
  V   V4        1.0  0.46600  0.46600  0.00000  1.0000
  V   V5        1.0  0.00000  0.53400  0.00000  1.0000
  V   V6        1.0  1.00000  0.81300  0.00000  1.0000
  V   V7        1.0  0.45200  0.20800  0.50000  1.0000
  V   V8        1.0  0.79200  0.24400  0.50000  1.0000
  V   V9        1.0  0.20800  0.45200  0.50000  1.0000
  V   V10       1.0  0.75600  0.54800  0.50000  1.0000
  V   V11       1.0  0.54800  0.75600  0.50000  1.0000
  V   V12       1.0  0.24400  0.79200  0.50000  1.0000
