data_image0
_chemical_formula_structural       As2O8Ta4
_chemical_formula_sum              "As2 O8 Ta4"
_cell_length_a       6.47879
_cell_length_b       6.47879
_cell_length_c       6.47879
_cell_angle_alpha    119.963
_cell_angle_beta     90.0649
_cell_angle_gamma    119.963

_space_group_name_H-M_alt    "P 1"
_space_group_IT_number       1

loop_
  _space_group_symop_operation_xyz
  'x, y, z'

loop_
  _atom_site_type_symbol
  _atom_site_label
  _atom_site_symmetry_multiplicity
  _atom_site_fract_x
  _atom_site_fract_y
  _atom_site_fract_z
  _atom_site_occupancy
  As  As1       1.0  0.00000  0.00000  0.00000  1.0000
  As  As2       1.0  0.75000  0.50000  0.25000  1.0000
  O   O1        1.0  0.19800  0.79900  0.39900  1.0000
  O   O2        1.0  0.60000  0.20100  0.39900  1.0000
  O   O3        1.0  0.60100  0.79900  0.40000  1.0000
  O   O4        1.0  0.14900  0.29900  0.44800  1.0000
  O   O5        1.0  0.60100  0.20100  0.80200  1.0000
  O   O6        1.0  0.14900  0.70100  0.85000  1.0000
  O   O7        1.0  0.15000  0.29900  0.85100  1.0000
  O   O8        1.0  0.55200  0.70100  0.85100  1.0000
  Ta  Ta1       1.0  0.37500  0.75000  0.12500  1.0000
  Ta  Ta2       1.0  0.37500  0.75000  0.62500  1.0000
  Ta  Ta3       1.0  0.87500  0.25000  0.62500  1.0000
  Ta  Ta4       1.0  0.37500  0.25000  0.62500  1.0000
