data_image0
_chemical_formula_structural       Ni12P7U2
_chemical_formula_sum              "Ni12 P7 U2"
_cell_length_a       9.06042
_cell_length_b       9.06051
_cell_length_c       3.68574
_cell_angle_alpha    90
_cell_angle_beta     90
_cell_angle_gamma    120.001

_space_group_name_H-M_alt    "P 1"
_space_group_IT_number       1

loop_
  _space_group_symop_operation_xyz
  'x, y, z'

loop_
  _atom_site_type_symbol
  _atom_site_label
  _atom_site_symmetry_multiplicity
  _atom_site_fract_x
  _atom_site_fract_y
  _atom_site_fract_z
  _atom_site_occupancy
  Ni  Ni1       1.0  0.43400  0.05710  0.00000  1.0000
  Ni  Ni2       1.0  0.15300  0.27500  0.00000  1.0000
  Ni  Ni3       1.0  0.94300  0.37600  0.00000  1.0000
  Ni  Ni4       1.0  0.62400  0.56600  0.00000  1.0000
  Ni  Ni5       1.0  0.12200  0.84700  0.00000  1.0000
  Ni  Ni6       1.0  0.72500  0.87800  0.00000  1.0000
  Ni  Ni7       1.0  0.21600  0.09490  0.50000  1.0000
  Ni  Ni8       1.0  0.90500  0.12100  0.50000  1.0000
  Ni  Ni9       1.0  0.38600  0.43100  0.50000  1.0000
  Ni  Ni10      1.0  0.04530  0.61400  0.50000  1.0000
  Ni  Ni11      1.0  0.87900  0.78400  0.50000  1.0000
  Ni  Ni12      1.0  0.56900  0.95500  0.50000  1.0000
  P   P1        1.0  0.00000  0.00000  0.00000  1.0000
  P   P2        1.0  0.70800  0.11400  0.00000  1.0000
  P   P3        1.0  0.40700  0.29200  0.00000  1.0000
  P   P4        1.0  0.88600  0.59300  0.00000  1.0000
  P   P5        1.0  0.11400  0.40500  0.50000  1.0000
  P   P6        1.0  0.59500  0.70900  0.50000  1.0000
  P   P7        1.0  0.29100  0.88600  0.50000  1.0000
  U   U1        1.0  0.33300  0.66700  0.00000  1.0000
  U   U2        1.0  0.66700  0.33300  0.50000  1.0000
