data_image0
_chemical_formula_structural       Mn2O8Zn4
_chemical_formula_sum              "Mn2 O8 Zn4"
_cell_length_a       5.97349
_cell_length_b       5.97349
_cell_length_c       5.97349
_cell_angle_alpha    119.997
_cell_angle_beta     90.0059
_cell_angle_gamma    119.997

_space_group_name_H-M_alt    "P 1"
_space_group_IT_number       1

loop_
  _space_group_symop_operation_xyz
  'x, y, z'

loop_
  _atom_site_type_symbol
  _atom_site_label
  _atom_site_symmetry_multiplicity
  _atom_site_fract_x
  _atom_site_fract_y
  _atom_site_fract_z
  _atom_site_occupancy
  Mn  Mn1       1.0  0.00000  0.00000  0.00000  1.0000
  Mn  Mn2       1.0  0.75000  0.50000  0.25000  1.0000
  O   O1        1.0  0.13500  0.75700  0.37800  1.0000
  O   O2        1.0  0.62200  0.24300  0.37800  1.0000
  O   O3        1.0  0.62200  0.75700  0.37800  1.0000
  O   O4        1.0  0.12800  0.25700  0.38500  1.0000
  O   O5        1.0  0.62200  0.24300  0.86500  1.0000
  O   O6        1.0  0.12800  0.74300  0.87200  1.0000
  O   O7        1.0  0.12800  0.25700  0.87200  1.0000
  O   O8        1.0  0.61500  0.74300  0.87200  1.0000
  Zn  Zn1       1.0  0.37500  0.75000  0.12500  1.0000
  Zn  Zn2       1.0  0.37500  0.75000  0.62500  1.0000
  Zn  Zn3       1.0  0.87500  0.25000  0.62500  1.0000
  Zn  Zn4       1.0  0.37500  0.25000  0.62500  1.0000
