data_image0
_chemical_formula_structural       Al2Cr4O8
_chemical_formula_sum              "Al2 Cr4 O8"
_cell_length_a       5.93096
_cell_length_b       5.93096
_cell_length_c       5.93096
_cell_angle_alpha    121.123
_cell_angle_beta     88.0661
_cell_angle_gamma    121.123

_space_group_name_H-M_alt    "P 1"
_space_group_IT_number       1

loop_
  _space_group_symop_operation_xyz
  'x, y, z'

loop_
  _atom_site_type_symbol
  _atom_site_label
  _atom_site_symmetry_multiplicity
  _atom_site_fract_x
  _atom_site_fract_y
  _atom_site_fract_z
  _atom_site_occupancy
  Al  Al1       1.0  0.00000  0.00000  0.00000  1.0000
  Al  Al2       1.0  0.75000  0.50000  0.25000  1.0000
  Cr  Cr1       1.0  0.37500  0.75000  0.12500  1.0000
  Cr  Cr2       1.0  0.37500  0.75000  0.62500  1.0000
  Cr  Cr3       1.0  0.87500  0.25000  0.62500  1.0000
  Cr  Cr4       1.0  0.37500  0.25000  0.62500  1.0000
  O   O1        1.0  0.61500  0.24500  0.37000  1.0000
  O   O2        1.0  0.12500  0.75500  0.37000  1.0000
  O   O3        1.0  0.12000  0.25500  0.37500  1.0000
  O   O4        1.0  0.63000  0.75500  0.38500  1.0000
  O   O5        1.0  0.12000  0.74500  0.86500  1.0000
  O   O6        1.0  0.63000  0.24500  0.87500  1.0000
  O   O7        1.0  0.13500  0.25500  0.88000  1.0000
  O   O8        1.0  0.62500  0.74500  0.88000  1.0000
