data_image0
_chemical_formula_structural       O8Ru2V4
_chemical_formula_sum              "O8 Ru2 V4"
_cell_length_a       6.10835
_cell_length_b       6.10835
_cell_length_c       6.10835
_cell_angle_alpha    120.61
_cell_angle_beta     88.9467
_cell_angle_gamma    120.61

_space_group_name_H-M_alt    "P 1"
_space_group_IT_number       1

loop_
  _space_group_symop_operation_xyz
  'x, y, z'

loop_
  _atom_site_type_symbol
  _atom_site_label
  _atom_site_symmetry_multiplicity
  _atom_site_fract_x
  _atom_site_fract_y
  _atom_site_fract_z
  _atom_site_occupancy
  O   O1        1.0  0.16400  0.77700  0.38700  1.0000
  O   O2        1.0  0.60900  0.22300  0.38700  1.0000
  O   O3        1.0  0.61300  0.77700  0.39100  1.0000
  O   O4        1.0  0.13700  0.27700  0.41400  1.0000
  O   O5        1.0  0.61300  0.22300  0.83600  1.0000
  O   O6        1.0  0.13700  0.72300  0.85900  1.0000
  O   O7        1.0  0.58600  0.72300  0.86300  1.0000
  O   O8        1.0  0.14100  0.27700  0.86300  1.0000
  Ru  Ru1       1.0  0.00000  0.00000  0.00000  1.0000
  Ru  Ru2       1.0  0.75000  0.50000  0.25000  1.0000
  V   V1        1.0  0.37500  0.75000  0.12500  1.0000
  V   V2        1.0  0.37500  0.75000  0.62500  1.0000
  V   V3        1.0  0.37500  0.25000  0.62500  1.0000
  V   V4        1.0  0.87500  0.25000  0.62500  1.0000
