data_image0
_chemical_formula_structural       Al2O8Pd4
_chemical_formula_sum              "Al2 O8 Pd4"
_cell_length_a       6.06079
_cell_length_b       6.06079
_cell_length_c       6.06079
_cell_angle_alpha    120.003
_cell_angle_beta     89.9947
_cell_angle_gamma    120.003

_space_group_name_H-M_alt    "P 1"
_space_group_IT_number       1

loop_
  _space_group_symop_operation_xyz
  'x, y, z'

loop_
  _atom_site_type_symbol
  _atom_site_label
  _atom_site_symmetry_multiplicity
  _atom_site_fract_x
  _atom_site_fract_y
  _atom_site_fract_z
  _atom_site_occupancy
  Al  Al1       1.0  0.00000  0.00000  0.00000  1.0000
  Al  Al2       1.0  0.75000  0.50000  0.25000  1.0000
  O   O1        1.0  0.12100  0.24300  0.36400  1.0000
  O   O2        1.0  0.11400  0.74300  0.37100  1.0000
  O   O3        1.0  0.62800  0.25700  0.37100  1.0000
  O   O4        1.0  0.62900  0.74300  0.37200  1.0000
  O   O5        1.0  0.12100  0.75700  0.87800  1.0000
  O   O6        1.0  0.12200  0.24300  0.87900  1.0000
  O   O7        1.0  0.63600  0.75700  0.87900  1.0000
  O   O8        1.0  0.62900  0.25700  0.88600  1.0000
  Pd  Pd1       1.0  0.37500  0.75000  0.12500  1.0000
  Pd  Pd2       1.0  0.37500  0.75000  0.62500  1.0000
  Pd  Pd3       1.0  0.37500  0.25000  0.62500  1.0000
  Pd  Pd4       1.0  0.87500  0.25000  0.62500  1.0000
