data_image0
_chemical_formula_structural       Ac2O8Te4
_chemical_formula_sum              "Ac2 O8 Te4"
_cell_length_a       7.14574
_cell_length_b       7.14574
_cell_length_c       7.14574
_cell_angle_alpha    120.019
_cell_angle_beta     89.9667
_cell_angle_gamma    120.019

_space_group_name_H-M_alt    "P 1"
_space_group_IT_number       1

loop_
  _space_group_symop_operation_xyz
  'x, y, z'

loop_
  _atom_site_type_symbol
  _atom_site_label
  _atom_site_symmetry_multiplicity
  _atom_site_fract_x
  _atom_site_fract_y
  _atom_site_fract_z
  _atom_site_occupancy
  Ac  Ac1       1.0  0.00000  0.00000  0.00000  1.0000
  Ac  Ac2       1.0  0.75000  0.50000  0.25000  1.0000
  O   O1        1.0  0.17700  0.78500  0.39200  1.0000
  O   O2        1.0  0.60700  0.21500  0.39200  1.0000
  O   O3        1.0  0.60800  0.78500  0.39300  1.0000
  O   O4        1.0  0.14200  0.28500  0.42700  1.0000
  O   O5        1.0  0.60800  0.21500  0.82300  1.0000
  O   O6        1.0  0.14200  0.71500  0.85700  1.0000
  O   O7        1.0  0.14300  0.28500  0.85800  1.0000
  O   O8        1.0  0.57300  0.71500  0.85800  1.0000
  Te  Te1       1.0  0.37500  0.75000  0.12500  1.0000
  Te  Te2       1.0  0.37500  0.25000  0.62500  1.0000
  Te  Te3       1.0  0.87500  0.25000  0.62500  1.0000
  Te  Te4       1.0  0.37500  0.75000  0.62500  1.0000
