data_image0
_chemical_formula_structural       Al2O8Te4
_chemical_formula_sum              "Al2 O8 Te4"
_cell_length_a       6.55543
_cell_length_b       6.55543
_cell_length_c       6.55543
_cell_angle_alpha    120.014
_cell_angle_beta     89.9755
_cell_angle_gamma    120.014

_space_group_name_H-M_alt    "P 1"
_space_group_IT_number       1

loop_
  _space_group_symop_operation_xyz
  'x, y, z'

loop_
  _atom_site_type_symbol
  _atom_site_label
  _atom_site_symmetry_multiplicity
  _atom_site_fract_x
  _atom_site_fract_y
  _atom_site_fract_z
  _atom_site_occupancy
  Al  Al1       1.0  0.00000  0.00000  0.00000  1.0000
  Al  Al2       1.0  0.75000  0.50000  0.25000  1.0000
  O   O1        1.0  0.11100  0.22200  0.33300  1.0000
  O   O2        1.0  0.63900  0.27800  0.36100  1.0000
  O   O3        1.0  0.08330  0.72200  0.36100  1.0000
  O   O4        1.0  0.63900  0.72200  0.36100  1.0000
  O   O5        1.0  0.11100  0.77800  0.88900  1.0000
  O   O6        1.0  0.11100  0.22200  0.88900  1.0000
  O   O7        1.0  0.66700  0.77800  0.88900  1.0000
  O   O8        1.0  0.63900  0.27800  0.91700  1.0000
  Te  Te1       1.0  0.37500  0.75000  0.12500  1.0000
  Te  Te2       1.0  0.87500  0.25000  0.62500  1.0000
  Te  Te3       1.0  0.37500  0.25000  0.62500  1.0000
  Te  Te4       1.0  0.37500  0.75000  0.62500  1.0000
