data_image0
_chemical_formula_structural       Al2O8Ru4
_chemical_formula_sum              "Al2 O8 Ru4"
_cell_length_a       5.92975
_cell_length_b       5.92975
_cell_length_c       5.92975
_cell_angle_alpha    119.99
_cell_angle_beta     90.0178
_cell_angle_gamma    119.99

_space_group_name_H-M_alt    "P 1"
_space_group_IT_number       1

loop_
  _space_group_symop_operation_xyz
  'x, y, z'

loop_
  _atom_site_type_symbol
  _atom_site_label
  _atom_site_symmetry_multiplicity
  _atom_site_fract_x
  _atom_site_fract_y
  _atom_site_fract_z
  _atom_site_occupancy
  Al  Al1       1.0  0.00000  0.00000  0.00000  1.0000
  Al  Al2       1.0  0.75000  0.50000  0.25000  1.0000
  O   O1        1.0  0.12300  0.24600  0.36900  1.0000
  O   O2        1.0  0.11900  0.74600  0.37300  1.0000
  O   O3        1.0  0.62700  0.25400  0.37300  1.0000
  O   O4        1.0  0.62700  0.74600  0.37300  1.0000
  O   O5        1.0  0.12300  0.75400  0.87700  1.0000
  O   O6        1.0  0.12300  0.24600  0.87700  1.0000
  O   O7        1.0  0.63100  0.75400  0.87700  1.0000
  O   O8        1.0  0.62700  0.25400  0.88100  1.0000
  Ru  Ru1       1.0  0.37500  0.75000  0.12500  1.0000
  Ru  Ru2       1.0  0.37500  0.25000  0.62500  1.0000
  Ru  Ru3       1.0  0.37500  0.75000  0.62500  1.0000
  Ru  Ru4       1.0  0.87500  0.25000  0.62500  1.0000
