data_image0
_chemical_formula_structural       Bi2Ce4O8
_chemical_formula_sum              "Bi2 Ce4 O8"
_cell_length_a       7.27115
_cell_length_b       7.27115
_cell_length_c       7.27115
_cell_angle_alpha    119.996
_cell_angle_beta     90.0073
_cell_angle_gamma    119.996

_space_group_name_H-M_alt    "P 1"
_space_group_IT_number       1

loop_
  _space_group_symop_operation_xyz
  'x, y, z'

loop_
  _atom_site_type_symbol
  _atom_site_label
  _atom_site_symmetry_multiplicity
  _atom_site_fract_x
  _atom_site_fract_y
  _atom_site_fract_z
  _atom_site_occupancy
  Bi  Bi1       1.0  0.00000  0.00000  0.00000  1.0000
  Bi  Bi2       1.0  0.75000  0.50000  0.25000  1.0000
  Ce  Ce1       1.0  0.37500  0.75000  0.12500  1.0000
  Ce  Ce2       1.0  0.87500  0.25000  0.62500  1.0000
  Ce  Ce3       1.0  0.37500  0.25000  0.62500  1.0000
  Ce  Ce4       1.0  0.37500  0.75000  0.62500  1.0000
  O   O1        1.0  0.61100  0.22100  0.38900  1.0000
  O   O2        1.0  0.16800  0.77900  0.38900  1.0000
  O   O3        1.0  0.61100  0.77900  0.38900  1.0000
  O   O4        1.0  0.13900  0.27900  0.41800  1.0000
  O   O5        1.0  0.61100  0.22100  0.83200  1.0000
  O   O6        1.0  0.13900  0.72100  0.86100  1.0000
  O   O7        1.0  0.13900  0.27900  0.86100  1.0000
  O   O8        1.0  0.58200  0.72100  0.86100  1.0000
