data_image0
_chemical_formula_structural       Ce2Nd4O8
_chemical_formula_sum              "Ce2 Nd4 O8"
_cell_length_a       7.10785
_cell_length_b       7.10785
_cell_length_c       7.10785
_cell_angle_alpha    119.987
_cell_angle_beta     90.0231
_cell_angle_gamma    119.987

_space_group_name_H-M_alt    "P 1"
_space_group_IT_number       1

loop_
  _space_group_symop_operation_xyz
  'x, y, z'

loop_
  _atom_site_type_symbol
  _atom_site_label
  _atom_site_symmetry_multiplicity
  _atom_site_fract_x
  _atom_site_fract_y
  _atom_site_fract_z
  _atom_site_occupancy
  Ce  Ce1       1.0  0.00000  0.00000  0.00000  1.0000
  Ce  Ce2       1.0  0.75000  0.50000  0.25000  1.0000
  Nd  Nd1       1.0  0.37500  0.75000  0.12500  1.0000
  Nd  Nd2       1.0  0.87500  0.25000  0.62500  1.0000
  Nd  Nd3       1.0  0.37500  0.75000  0.62500  1.0000
  Nd  Nd4       1.0  0.37500  0.25000  0.62500  1.0000
  O   O1        1.0  0.61600  0.23100  0.38400  1.0000
  O   O2        1.0  0.15300  0.76900  0.38400  1.0000
  O   O3        1.0  0.61600  0.76900  0.38400  1.0000
  O   O4        1.0  0.13400  0.26900  0.40300  1.0000
  O   O5        1.0  0.61600  0.23100  0.84700  1.0000
  O   O6        1.0  0.13400  0.73100  0.86600  1.0000
  O   O7        1.0  0.13400  0.26900  0.86600  1.0000
  O   O8        1.0  0.59700  0.73100  0.86600  1.0000
