data_image0
_chemical_formula_structural       Fe2Mn4O8
_chemical_formula_sum              "Fe2 Mn4 O8"
_cell_length_a       6.10279
_cell_length_b       6.10279
_cell_length_c       6.10279
_cell_angle_alpha    121.384
_cell_angle_beta     87.6195
_cell_angle_gamma    121.384

_space_group_name_H-M_alt    "P 1"
_space_group_IT_number       1

loop_
  _space_group_symop_operation_xyz
  'x, y, z'

loop_
  _atom_site_type_symbol
  _atom_site_label
  _atom_site_symmetry_multiplicity
  _atom_site_fract_x
  _atom_site_fract_y
  _atom_site_fract_z
  _atom_site_occupancy
  Fe  Fe1       1.0  0.00000  0.00000  0.00000  1.0000
  Fe  Fe2       1.0  0.75000  0.50000  0.25000  1.0000
  Mn  Mn1       1.0  0.37500  0.75000  0.12500  1.0000
  Mn  Mn2       1.0  0.87500  0.25000  0.62500  1.0000
  Mn  Mn3       1.0  0.37500  0.75000  0.62500  1.0000
  Mn  Mn4       1.0  0.37500  0.25000  0.62500  1.0000
  O   O1        1.0  0.13500  0.76300  0.37200  1.0000
  O   O2        1.0  0.61000  0.23700  0.37200  1.0000
  O   O3        1.0  0.12200  0.26300  0.38500  1.0000
  O   O4        1.0  0.62800  0.76300  0.39000  1.0000
  O   O5        1.0  0.12200  0.73700  0.86000  1.0000
  O   O6        1.0  0.62800  0.23700  0.86500  1.0000
  O   O7        1.0  0.14000  0.26300  0.87800  1.0000
  O   O8        1.0  0.61500  0.73700  0.87800  1.0000
