data_image0
_chemical_formula_structural       Gd2O8Si4
_chemical_formula_sum              "Gd2 O8 Si4"
_cell_length_a       6.37959
_cell_length_b       6.37959
_cell_length_c       6.37959
_cell_angle_alpha    119.995
_cell_angle_beta     90.0094
_cell_angle_gamma    119.995

_space_group_name_H-M_alt    "P 1"
_space_group_IT_number       1

loop_
  _space_group_symop_operation_xyz
  'x, y, z'

loop_
  _atom_site_type_symbol
  _atom_site_label
  _atom_site_symmetry_multiplicity
  _atom_site_fract_x
  _atom_site_fract_y
  _atom_site_fract_z
  _atom_site_occupancy
  Gd  Gd1       1.0  0.00000  0.00000  0.00000  1.0000
  Gd  Gd2       1.0  0.75000  0.50000  0.25000  1.0000
  O   O1        1.0  0.17200  0.78100  0.39100  1.0000
  O   O2        1.0  0.60900  0.21900  0.39100  1.0000
  O   O3        1.0  0.60900  0.78100  0.39100  1.0000
  O   O4        1.0  0.14100  0.28100  0.42200  1.0000
  O   O5        1.0  0.60900  0.21900  0.82800  1.0000
  O   O6        1.0  0.14100  0.71900  0.85900  1.0000
  O   O7        1.0  0.14100  0.28100  0.85900  1.0000
  O   O8        1.0  0.57800  0.71900  0.85900  1.0000
  Si  Si1       1.0  0.37500  0.75000  0.12500  1.0000
  Si  Si2       1.0  0.37500  0.25000  0.62500  1.0000
  Si  Si3       1.0  0.37500  0.75000  0.62500  1.0000
  Si  Si4       1.0  0.87500  0.25000  0.62500  1.0000
