data_image0
_chemical_formula_structural       Li2O8Sm4
_chemical_formula_sum              "Li2 O8 Sm4"
_cell_length_a       6.85212
_cell_length_b       6.85212
_cell_length_c       6.85212
_cell_angle_alpha    120.003
_cell_angle_beta     89.9946
_cell_angle_gamma    120.003

_space_group_name_H-M_alt    "P 1"
_space_group_IT_number       1

loop_
  _space_group_symop_operation_xyz
  'x, y, z'

loop_
  _atom_site_type_symbol
  _atom_site_label
  _atom_site_symmetry_multiplicity
  _atom_site_fract_x
  _atom_site_fract_y
  _atom_site_fract_z
  _atom_site_occupancy
  Li  Li1       1.0  0.00000  0.00000  0.00000  1.0000
  Li  Li2       1.0  0.75000  0.50000  0.25000  1.0000
  O   O1        1.0  0.15600  0.77000  0.38500  1.0000
  O   O2        1.0  0.61500  0.23000  0.38500  1.0000
  O   O3        1.0  0.61500  0.77000  0.38500  1.0000
  O   O4        1.0  0.13500  0.27000  0.40600  1.0000
  O   O5        1.0  0.61500  0.23000  0.84400  1.0000
  O   O6        1.0  0.13500  0.73000  0.86500  1.0000
  O   O7        1.0  0.59400  0.73000  0.86500  1.0000
  O   O8        1.0  0.13500  0.27000  0.86500  1.0000
  Sm  Sm1       1.0  0.37500  0.75000  0.12500  1.0000
  Sm  Sm2       1.0  0.87500  0.25000  0.62500  1.0000
  Sm  Sm3       1.0  0.37500  0.25000  0.62500  1.0000
  Sm  Sm4       1.0  0.37500  0.75000  0.62500  1.0000
