data_image0
_chemical_formula_structural       Fe2O8Pt4
_chemical_formula_sum              "Fe2 O8 Pt4"
_cell_length_a       6.27258
_cell_length_b       6.27258
_cell_length_c       6.27258
_cell_angle_alpha    122.561
_cell_angle_beta     85.6186
_cell_angle_gamma    122.561

_space_group_name_H-M_alt    "P 1"
_space_group_IT_number       1

loop_
  _space_group_symop_operation_xyz
  'x, y, z'

loop_
  _atom_site_type_symbol
  _atom_site_label
  _atom_site_symmetry_multiplicity
  _atom_site_fract_x
  _atom_site_fract_y
  _atom_site_fract_z
  _atom_site_occupancy
  Fe  Fe1       1.0  0.00000  0.00000  0.00000  1.0000
  Fe  Fe2       1.0  0.75000  0.50000  0.25000  1.0000
  O   O1        1.0  0.49800  0.19700  0.30200  1.0000
  O   O2        1.0  0.10500  0.80300  0.30200  1.0000
  O   O3        1.0  0.05160  0.30300  0.35500  1.0000
  O   O4        1.0  0.69800  0.80300  0.50200  1.0000
  O   O5        1.0  0.05160  0.69700  0.74800  1.0000
  O   O6        1.0  0.69800  0.19700  0.89500  1.0000
  O   O7        1.0  0.25200  0.30300  0.94800  1.0000
  O   O8        1.0  0.64500  0.69700  0.94800  1.0000
  Pt  Pt1       1.0  0.37500  0.75000  0.12500  1.0000
  Pt  Pt2       1.0  0.37500  0.75000  0.62500  1.0000
  Pt  Pt3       1.0  0.87500  0.25000  0.62500  1.0000
  Pt  Pt4       1.0  0.37500  0.25000  0.62500  1.0000
