data_image0
_chemical_formula_structural       Nd2O8Sn4
_chemical_formula_sum              "Nd2 O8 Sn4"
_cell_length_a       6.98477
_cell_length_b       6.98477
_cell_length_c       6.98477
_cell_angle_alpha    119.993
_cell_angle_beta     90.0123
_cell_angle_gamma    119.993

_space_group_name_H-M_alt    "P 1"
_space_group_IT_number       1

loop_
  _space_group_symop_operation_xyz
  'x, y, z'

loop_
  _atom_site_type_symbol
  _atom_site_label
  _atom_site_symmetry_multiplicity
  _atom_site_fract_x
  _atom_site_fract_y
  _atom_site_fract_z
  _atom_site_occupancy
  Nd  Nd1       1.0  0.00000  0.00000  0.00000  1.0000
  Nd  Nd2       1.0  0.75000  0.50000  0.25000  1.0000
  O   O1        1.0  0.61800  0.23600  0.38200  1.0000
  O   O2        1.0  0.14700  0.76400  0.38200  1.0000
  O   O3        1.0  0.61800  0.76400  0.38200  1.0000
  O   O4        1.0  0.13200  0.26400  0.39700  1.0000
  O   O5        1.0  0.61800  0.23600  0.85300  1.0000
  O   O6        1.0  0.13200  0.73600  0.86800  1.0000
  O   O7        1.0  0.60300  0.73600  0.86800  1.0000
  O   O8        1.0  0.13200  0.26400  0.86800  1.0000
  Sn  Sn1       1.0  0.37500  0.75000  0.12500  1.0000
  Sn  Sn2       1.0  0.87500  0.25000  0.62500  1.0000
  Sn  Sn3       1.0  0.37500  0.25000  0.62500  1.0000
  Sn  Sn4       1.0  0.37500  0.75000  0.62500  1.0000
