data_image0
_chemical_formula_structural       O8Tc2Yb4
_chemical_formula_sum              "O8 Tc2 Yb4"
_cell_length_a       6.42471
_cell_length_b       6.42471
_cell_length_c       6.42471
_cell_angle_alpha    119.991
_cell_angle_beta     90.015
_cell_angle_gamma    119.991

_space_group_name_H-M_alt    "P 1"
_space_group_IT_number       1

loop_
  _space_group_symop_operation_xyz
  'x, y, z'

loop_
  _atom_site_type_symbol
  _atom_site_label
  _atom_site_symmetry_multiplicity
  _atom_site_fract_x
  _atom_site_fract_y
  _atom_site_fract_z
  _atom_site_occupancy
  O   O1        1.0  0.12200  0.24500  0.36800  1.0000
  O   O2        1.0  0.62700  0.25500  0.37200  1.0000
  O   O3        1.0  0.11800  0.74500  0.37200  1.0000
  O   O4        1.0  0.62800  0.74500  0.37300  1.0000
  O   O5        1.0  0.12200  0.75500  0.87700  1.0000
  O   O6        1.0  0.12300  0.24500  0.87800  1.0000
  O   O7        1.0  0.63200  0.75500  0.87800  1.0000
  O   O8        1.0  0.62800  0.25500  0.88200  1.0000
  Tc  Tc1       1.0  0.00000  0.00000  0.00000  1.0000
  Tc  Tc2       1.0  0.75000  0.50000  0.25000  1.0000
  Yb  Yb1       1.0  0.37500  0.75000  0.12500  1.0000
  Yb  Yb2       1.0  0.87500  0.25000  0.62500  1.0000
  Yb  Yb3       1.0  0.37500  0.75000  0.62500  1.0000
  Yb  Yb4       1.0  0.37500  0.25000  0.62500  1.0000
