data_image0
_chemical_formula_structural       Al2Cs4O8
_chemical_formula_sum              "Al2 Cs4 O8"
_cell_length_a       7.44594
_cell_length_b       7.44594
_cell_length_c       7.44594
_cell_angle_alpha    120
_cell_angle_beta     89.9994
_cell_angle_gamma    120

_space_group_name_H-M_alt    "P 1"
_space_group_IT_number       1

loop_
  _space_group_symop_operation_xyz
  'x, y, z'

loop_
  _atom_site_type_symbol
  _atom_site_label
  _atom_site_symmetry_multiplicity
  _atom_site_fract_x
  _atom_site_fract_y
  _atom_site_fract_z
  _atom_site_occupancy
  Al  Al1       1.0  0.00000  0.00000  0.00000  1.0000
  Al  Al2       1.0  0.75000  0.50000  0.25000  1.0000
  Cs  Cs1       1.0  0.37500  0.75000  0.12500  1.0000
  Cs  Cs2       1.0  0.37500  0.25000  0.62500  1.0000
  Cs  Cs3       1.0  0.37500  0.75000  0.62500  1.0000
  Cs  Cs4       1.0  0.87500  0.25000  0.62500  1.0000
  O   O1        1.0  0.09660  0.19300  0.29000  1.0000
  O   O2        1.0  0.65300  0.30700  0.34700  1.0000
  O   O3        1.0  0.03970  0.69300  0.34700  1.0000
  O   O4        1.0  0.65300  0.69300  0.34700  1.0000
  O   O5        1.0  0.09660  0.80700  0.90300  1.0000
  O   O6        1.0  0.09660  0.19300  0.90300  1.0000
  O   O7        1.0  0.71000  0.80700  0.90300  1.0000
  O   O8        1.0  0.65300  0.30700  0.96000  1.0000
