data_image0
_chemical_formula_structural       O8Ta2Zr4
_chemical_formula_sum              "O8 Ta2 Zr4"
_cell_length_a       6.41705
_cell_length_b       6.41705
_cell_length_c       6.41705
_cell_angle_alpha    119.975
_cell_angle_beta     90.0425
_cell_angle_gamma    119.975

_space_group_name_H-M_alt    "P 1"
_space_group_IT_number       1

loop_
  _space_group_symop_operation_xyz
  'x, y, z'

loop_
  _atom_site_type_symbol
  _atom_site_label
  _atom_site_symmetry_multiplicity
  _atom_site_fract_x
  _atom_site_fract_y
  _atom_site_fract_z
  _atom_site_occupancy
  O   O1        1.0  0.12200  0.24400  0.36600  1.0000
  O   O2        1.0  0.11600  0.74400  0.37200  1.0000
  O   O3        1.0  0.62800  0.25600  0.37200  1.0000
  O   O4        1.0  0.62800  0.74400  0.37200  1.0000
  O   O5        1.0  0.12200  0.75600  0.87800  1.0000
  O   O6        1.0  0.63400  0.75600  0.87800  1.0000
  O   O7        1.0  0.12200  0.24400  0.87800  1.0000
  O   O8        1.0  0.62800  0.25600  0.88400  1.0000
  Ta  Ta1       1.0  0.00000  0.00000  0.00000  1.0000
  Ta  Ta2       1.0  0.75000  0.50000  0.25000  1.0000
  Zr  Zr1       1.0  0.37500  0.75000  0.12500  1.0000
  Zr  Zr2       1.0  0.37500  0.25000  0.62500  1.0000
  Zr  Zr3       1.0  0.87500  0.25000  0.62500  1.0000
  Zr  Zr4       1.0  0.37500  0.75000  0.62500  1.0000
