data_image0
_chemical_formula_structural       Cr2O8Th4
_chemical_formula_sum              "Cr2 O8 Th4"
_cell_length_a       7.33654
_cell_length_b       7.33654
_cell_length_c       7.33654
_cell_angle_alpha    119.97
_cell_angle_beta     90.0514
_cell_angle_gamma    119.97

_space_group_name_H-M_alt    "P 1"
_space_group_IT_number       1

loop_
  _space_group_symop_operation_xyz
  'x, y, z'

loop_
  _atom_site_type_symbol
  _atom_site_label
  _atom_site_symmetry_multiplicity
  _atom_site_fract_x
  _atom_site_fract_y
  _atom_site_fract_z
  _atom_site_occupancy
  Cr  Cr1       1.0  0.00000  0.00000  0.00000  1.0000
  Cr  Cr2       1.0  0.75000  0.50000  0.25000  1.0000
  O   O1        1.0  0.60100  0.20200  0.39900  1.0000
  O   O2        1.0  0.19700  0.79800  0.39900  1.0000
  O   O3        1.0  0.60100  0.79800  0.39900  1.0000
  O   O4        1.0  0.14900  0.29800  0.44700  1.0000
  O   O5        1.0  0.60100  0.20200  0.80300  1.0000
  O   O6        1.0  0.14900  0.70200  0.85100  1.0000
  O   O7        1.0  0.14900  0.29800  0.85100  1.0000
  O   O8        1.0  0.55300  0.70200  0.85100  1.0000
  Th  Th1       1.0  0.37500  0.75000  0.12500  1.0000
  Th  Th2       1.0  0.37500  0.75000  0.62500  1.0000
  Th  Th3       1.0  0.87500  0.25000  0.62500  1.0000
  Th  Th4       1.0  0.37500  0.25000  0.62500  1.0000
