data_image0
_chemical_formula_structural       In2K4O8
_chemical_formula_sum              "In2 K4 O8"
_cell_length_a       7.20641
_cell_length_b       7.20641
_cell_length_c       7.20641
_cell_angle_alpha    119.991
_cell_angle_beta     90.0152
_cell_angle_gamma    119.991

_space_group_name_H-M_alt    "P 1"
_space_group_IT_number       1

loop_
  _space_group_symop_operation_xyz
  'x, y, z'

loop_
  _atom_site_type_symbol
  _atom_site_label
  _atom_site_symmetry_multiplicity
  _atom_site_fract_x
  _atom_site_fract_y
  _atom_site_fract_z
  _atom_site_occupancy
  In  In1       1.0  0.00000  0.00000  0.00000  1.0000
  In  In2       1.0  0.75000  0.50000  0.25000  1.0000
  K   K1        1.0  0.37500  0.75000  0.12500  1.0000
  K   K2        1.0  0.37500  0.75000  0.62500  1.0000
  K   K3        1.0  0.87500  0.25000  0.62500  1.0000
  K   K4        1.0  0.37500  0.25000  0.62500  1.0000
  O   O1        1.0  0.11600  0.23200  0.34800  1.0000
  O   O2        1.0  0.63400  0.26800  0.36600  1.0000
  O   O3        1.0  0.09850  0.73200  0.36600  1.0000
  O   O4        1.0  0.63400  0.73200  0.36600  1.0000
  O   O5        1.0  0.11600  0.76800  0.88400  1.0000
  O   O6        1.0  0.11600  0.23200  0.88400  1.0000
  O   O7        1.0  0.65200  0.76800  0.88400  1.0000
  O   O8        1.0  0.63400  0.26800  0.90200  1.0000
