data_image0
_chemical_formula_structural       Cr2O8Te4
_chemical_formula_sum              "Cr2 O8 Te4"
_cell_length_a       6.81856
_cell_length_b       6.81856
_cell_length_c       6.81856
_cell_angle_alpha    119.887
_cell_angle_beta     90.196
_cell_angle_gamma    119.887

_space_group_name_H-M_alt    "P 1"
_space_group_IT_number       1

loop_
  _space_group_symop_operation_xyz
  'x, y, z'

loop_
  _atom_site_type_symbol
  _atom_site_label
  _atom_site_symmetry_multiplicity
  _atom_site_fract_x
  _atom_site_fract_y
  _atom_site_fract_z
  _atom_site_occupancy
  Cr  Cr1       1.0  0.00000  0.00000  0.00000  1.0000
  Cr  Cr2       1.0  0.75000  0.50000  0.25000  1.0000
  O   O1        1.0  0.16100  0.77500  0.38500  1.0000
  O   O2        1.0  0.61000  0.22500  0.38500  1.0000
  O   O3        1.0  0.61500  0.77500  0.39000  1.0000
  O   O4        1.0  0.13500  0.27500  0.41100  1.0000
  O   O5        1.0  0.61500  0.22500  0.83900  1.0000
  O   O6        1.0  0.13500  0.72500  0.86000  1.0000
  O   O7        1.0  0.14000  0.27500  0.86500  1.0000
  O   O8        1.0  0.58900  0.72500  0.86500  1.0000
  Te  Te1       1.0  0.37500  0.75000  0.12500  1.0000
  Te  Te2       1.0  0.37500  0.25000  0.62500  1.0000
  Te  Te3       1.0  0.37500  0.75000  0.62500  1.0000
  Te  Te4       1.0  0.87500  0.25000  0.62500  1.0000
