data_image0
_chemical_formula_structural       O8Pu2Sc4
_chemical_formula_sum              "O8 Pu2 Sc4"
_cell_length_a       6.54025
_cell_length_b       6.54025
_cell_length_c       6.54025
_cell_angle_alpha    120.437
_cell_angle_beta     89.2455
_cell_angle_gamma    120.437

_space_group_name_H-M_alt    "P 1"
_space_group_IT_number       1

loop_
  _space_group_symop_operation_xyz
  'x, y, z'

loop_
  _atom_site_type_symbol
  _atom_site_label
  _atom_site_symmetry_multiplicity
  _atom_site_fract_x
  _atom_site_fract_y
  _atom_site_fract_z
  _atom_site_occupancy
  O   O1        1.0  0.60500  0.78500  0.39000  1.0000
  O   O2        1.0  0.61000  0.21500  0.39500  1.0000
  O   O3        1.0  0.18100  0.78500  0.39500  1.0000
  O   O4        1.0  0.14500  0.28500  0.43100  1.0000
  O   O5        1.0  0.60500  0.21500  0.81900  1.0000
  O   O6        1.0  0.14000  0.28500  0.85500  1.0000
  O   O7        1.0  0.56900  0.71500  0.85500  1.0000
  O   O8        1.0  0.14500  0.71500  0.86000  1.0000
  Pu  Pu1       1.0  0.00000  0.00000  0.00000  1.0000
  Pu  Pu2       1.0  0.75000  0.50000  0.25000  1.0000
  Sc  Sc1       1.0  0.37500  0.75000  0.12500  1.0000
  Sc  Sc2       1.0  0.37500  0.25000  0.62500  1.0000
  Sc  Sc3       1.0  0.37500  0.75000  0.62500  1.0000
  Sc  Sc4       1.0  0.87500  0.25000  0.62500  1.0000
