data_image0
_chemical_formula_structural       As2Ge4O8
_chemical_formula_sum              "As2 Ge4 O8"
_cell_length_a       6.4329
_cell_length_b       6.4329
_cell_length_c       6.4329
_cell_angle_alpha    119.963
_cell_angle_beta     90.0645
_cell_angle_gamma    119.963

_space_group_name_H-M_alt    "P 1"
_space_group_IT_number       1

loop_
  _space_group_symop_operation_xyz
  'x, y, z'

loop_
  _atom_site_type_symbol
  _atom_site_label
  _atom_site_symmetry_multiplicity
  _atom_site_fract_x
  _atom_site_fract_y
  _atom_site_fract_z
  _atom_site_occupancy
  As  As1       1.0  0.00000  0.00000  0.00000  1.0000
  As  As2       1.0  0.75000  0.50000  0.25000  1.0000
  Ge  Ge1       1.0  0.37500  0.75000  0.12500  1.0000
  Ge  Ge2       1.0  0.37500  0.75000  0.62500  1.0000
  Ge  Ge3       1.0  0.87500  0.25000  0.62500  1.0000
  Ge  Ge4       1.0  0.37500  0.25000  0.62500  1.0000
  O   O1        1.0  0.11500  0.22900  0.34400  1.0000
  O   O2        1.0  0.63500  0.72900  0.36400  1.0000
  O   O3        1.0  0.63600  0.27100  0.36500  1.0000
  O   O4        1.0  0.09420  0.72900  0.36500  1.0000
  O   O5        1.0  0.11400  0.22900  0.88500  1.0000
  O   O6        1.0  0.65600  0.77100  0.88500  1.0000
  O   O7        1.0  0.11500  0.77100  0.88600  1.0000
  O   O8        1.0  0.63500  0.27100  0.90600  1.0000
