data_image0
_chemical_formula_structural       B2O8Rh4
_chemical_formula_sum              "B2 O8 Rh4"
_cell_length_a       5.66467
_cell_length_b       5.66467
_cell_length_c       5.66467
_cell_angle_alpha    119.969
_cell_angle_beta     90.0533
_cell_angle_gamma    119.969

_space_group_name_H-M_alt    "P 1"
_space_group_IT_number       1

loop_
  _space_group_symop_operation_xyz
  'x, y, z'

loop_
  _atom_site_type_symbol
  _atom_site_label
  _atom_site_symmetry_multiplicity
  _atom_site_fract_x
  _atom_site_fract_y
  _atom_site_fract_z
  _atom_site_occupancy
  B   B1        1.0  0.00000  0.00000  0.00000  1.0000
  B   B2        1.0  0.75000  0.50000  0.25000  1.0000
  O   O1        1.0  0.10900  0.21800  0.32700  1.0000
  O   O2        1.0  0.64100  0.71800  0.35900  1.0000
  O   O3        1.0  0.64100  0.28200  0.35900  1.0000
  O   O4        1.0  0.07690  0.71800  0.35900  1.0000
  O   O5        1.0  0.67300  0.78200  0.89100  1.0000
  O   O6        1.0  0.10900  0.21800  0.89100  1.0000
  O   O7        1.0  0.10900  0.78200  0.89100  1.0000
  O   O8        1.0  0.64100  0.28200  0.92300  1.0000
  Rh  Rh1       1.0  0.37500  0.75000  0.12500  1.0000
  Rh  Rh2       1.0  0.37500  0.75000  0.62500  1.0000
  Rh  Rh3       1.0  0.87500  0.25000  0.62500  1.0000
  Rh  Rh4       1.0  0.37500  0.25000  0.62500  1.0000
