data_image0
_chemical_formula_structural       B2Ge4O8
_chemical_formula_sum              "B2 Ge4 O8"
_cell_length_a       5.80787
_cell_length_b       5.80787
_cell_length_c       5.80787
_cell_angle_alpha    119.953
_cell_angle_beta     90.0822
_cell_angle_gamma    119.953

_space_group_name_H-M_alt    "P 1"
_space_group_IT_number       1

loop_
  _space_group_symop_operation_xyz
  'x, y, z'

loop_
  _atom_site_type_symbol
  _atom_site_label
  _atom_site_symmetry_multiplicity
  _atom_site_fract_x
  _atom_site_fract_y
  _atom_site_fract_z
  _atom_site_occupancy
  B   B1        1.0  0.00000  0.00000  0.00000  1.0000
  B   B2        1.0  0.75000  0.50000  0.25000  1.0000
  Ge  Ge1       1.0  0.37500  0.75000  0.12500  1.0000
  Ge  Ge2       1.0  0.87500  0.25000  0.62500  1.0000
  Ge  Ge3       1.0  0.37500  0.75000  0.62500  1.0000
  Ge  Ge4       1.0  0.37500  0.25000  0.62500  1.0000
  O   O1        1.0  0.10600  0.21100  0.31700  1.0000
  O   O2        1.0  0.64400  0.71100  0.35500  1.0000
  O   O3        1.0  0.64500  0.28900  0.35600  1.0000
  O   O4        1.0  0.06660  0.71100  0.35600  1.0000
  O   O5        1.0  0.68300  0.78900  0.89400  1.0000
  O   O6        1.0  0.10500  0.21100  0.89400  1.0000
  O   O7        1.0  0.10600  0.78900  0.89500  1.0000
  O   O8        1.0  0.64400  0.28900  0.93300  1.0000
