data_image0
_chemical_formula_structural       Cs2O8U4
_chemical_formula_sum              "Cs2 O8 U4"
_cell_length_a       7.39746
_cell_length_b       7.39746
_cell_length_c       7.39746
_cell_angle_alpha    119.881
_cell_angle_beta     90.2062
_cell_angle_gamma    119.881

_space_group_name_H-M_alt    "P 1"
_space_group_IT_number       1

loop_
  _space_group_symop_operation_xyz
  'x, y, z'

loop_
  _atom_site_type_symbol
  _atom_site_label
  _atom_site_symmetry_multiplicity
  _atom_site_fract_x
  _atom_site_fract_y
  _atom_site_fract_z
  _atom_site_occupancy
  Cs  Cs1       1.0  0.00000  0.00000  0.00000  1.0000
  Cs  Cs2       1.0  0.75000  0.50000  0.25000  1.0000
  O   O1        1.0  0.59100  0.19200  0.39900  1.0000
  O   O2        1.0  0.20700  0.80800  0.39900  1.0000
  O   O3        1.0  0.60100  0.80800  0.40900  1.0000
  O   O4        1.0  0.14900  0.30800  0.45700  1.0000
  O   O5        1.0  0.60100  0.19200  0.79300  1.0000
  O   O6        1.0  0.14900  0.69200  0.84100  1.0000
  O   O7        1.0  0.15900  0.30800  0.85100  1.0000
  O   O8        1.0  0.54300  0.69200  0.85100  1.0000
  U   U1        1.0  0.37500  0.75000  0.12500  1.0000
  U   U2        1.0  0.37500  0.75000  0.62500  1.0000
  U   U3        1.0  0.37500  0.25000  0.62500  1.0000
  U   U4        1.0  0.87500  0.25000  0.62500  1.0000
