data_image0
_chemical_formula_structural       O14Sn4Ta4
_chemical_formula_sum              "O14 Sn4 Ta4"
_cell_length_a       7.49819
_cell_length_b       7.49819
_cell_length_c       7.49819
_cell_angle_alpha    120
_cell_angle_beta     90
_cell_angle_gamma    120

_space_group_name_H-M_alt    "P 1"
_space_group_IT_number       1

loop_
  _space_group_symop_operation_xyz
  'x, y, z'

loop_
  _atom_site_type_symbol
  _atom_site_label
  _atom_site_symmetry_multiplicity
  _atom_site_fract_x
  _atom_site_fract_y
  _atom_site_fract_z
  _atom_site_occupancy
  O   O1        1.0  0.56100  0.12200  0.06090  1.0000
  O   O2        1.0  0.93900  0.50000  0.06090  1.0000
  O   O3        1.0  0.56100  0.50000  0.06090  1.0000
  O   O4        1.0  0.18900  0.00000  0.18900  1.0000
  O   O5        1.0  0.18900  0.37800  0.18900  1.0000
  O   O6        1.0  0.81100  0.00000  0.18900  1.0000
  O   O7        1.0  0.56100  0.50000  0.43900  1.0000
  O   O8        1.0  0.93900  0.50000  0.43900  1.0000
  O   O9        1.0  0.93900  0.87800  0.43900  1.0000
  O   O10       1.0  0.50000  0.00000  0.50000  1.0000
  O   O11       1.0  0.25000  0.50000  0.75000  1.0000
  O   O12       1.0  0.18900  0.00000  0.81100  1.0000
  O   O13       1.0  0.81100  0.00000  0.81100  1.0000
  O   O14       1.0  0.81100  0.62200  0.81100  1.0000
  Sn  Sn1       1.0  0.37500  0.75000  0.12500  1.0000
  Sn  Sn2       1.0  0.37500  0.25000  0.62500  1.0000
  Sn  Sn3       1.0  0.37500  0.75000  0.62500  1.0000
  Sn  Sn4       1.0  0.87500  0.25000  0.62500  1.0000
  Ta  Ta1       1.0  0.87500  0.25000  0.12500  1.0000
  Ta  Ta2       1.0  0.37500  0.25000  0.12500  1.0000
  Ta  Ta3       1.0  0.87500  0.75000  0.12500  1.0000
  Ta  Ta4       1.0  0.87500  0.75000  0.62500  1.0000
