data_image0
_chemical_formula_structural       Ir2Na4O8
_chemical_formula_sum              "Ir2 Na4 O8"
_cell_length_a       6.43002
_cell_length_b       6.43002
_cell_length_c       6.43002
_cell_angle_alpha    119.995
_cell_angle_beta     90.0094
_cell_angle_gamma    119.995

_space_group_name_H-M_alt    "P 1"
_space_group_IT_number       1

loop_
  _space_group_symop_operation_xyz
  'x, y, z'

loop_
  _atom_site_type_symbol
  _atom_site_label
  _atom_site_symmetry_multiplicity
  _atom_site_fract_x
  _atom_site_fract_y
  _atom_site_fract_z
  _atom_site_occupancy
  Ir  Ir1       1.0  0.00000  0.00000  0.00000  1.0000
  Ir  Ir2       1.0  0.75000  0.50000  0.25000  1.0000
  Na  Na1       1.0  0.37500  0.75000  0.12500  1.0000
  Na  Na2       1.0  0.37500  0.75000  0.62500  1.0000
  Na  Na3       1.0  0.37500  0.25000  0.62500  1.0000
  Na  Na4       1.0  0.87500  0.25000  0.62500  1.0000
  O   O1        1.0  0.11600  0.23300  0.34900  1.0000
  O   O2        1.0  0.09880  0.73300  0.36600  1.0000
  O   O3        1.0  0.63400  0.26700  0.36600  1.0000
  O   O4        1.0  0.63400  0.73300  0.36600  1.0000
  O   O5        1.0  0.11600  0.76700  0.88400  1.0000
  O   O6        1.0  0.11600  0.23300  0.88400  1.0000
  O   O7        1.0  0.65100  0.76700  0.88400  1.0000
  O   O8        1.0  0.63400  0.26700  0.90100  1.0000
