data_image0
_chemical_formula_structural       Mn4O14Tl4
_chemical_formula_sum              "Mn4 O14 Tl4"
_cell_length_a       7.03932
_cell_length_b       7.03932
_cell_length_c       7.03932
_cell_angle_alpha    120
_cell_angle_beta     90
_cell_angle_gamma    120

_space_group_name_H-M_alt    "P 1"
_space_group_IT_number       1

loop_
  _space_group_symop_operation_xyz
  'x, y, z'

loop_
  _atom_site_type_symbol
  _atom_site_label
  _atom_site_symmetry_multiplicity
  _atom_site_fract_x
  _atom_site_fract_y
  _atom_site_fract_z
  _atom_site_occupancy
  Mn  Mn1       1.0  0.00000  0.00000  0.00000  1.0000
  Mn  Mn2       1.0  0.50000  0.00000  0.00000  1.0000
  Mn  Mn3       1.0  0.50000  0.50000  0.00000  1.0000
  Mn  Mn4       1.0  0.50000  0.50000  0.50000  1.0000
  O   O1        1.0  0.42400  0.75000  0.07620  1.0000
  O   O2        1.0  0.82600  0.15200  0.07620  1.0000
  O   O3        1.0  0.82600  0.75000  0.07620  1.0000
  O   O4        1.0  0.17400  0.25000  0.32600  1.0000
  O   O5        1.0  0.57600  0.25000  0.32600  1.0000
  O   O6        1.0  0.57600  0.65200  0.32600  1.0000
  O   O7        1.0  0.12500  0.75000  0.37500  1.0000
  O   O8        1.0  0.87500  0.25000  0.62500  1.0000
  O   O9        1.0  0.42400  0.75000  0.67400  1.0000
  O   O10       1.0  0.82600  0.75000  0.67400  1.0000
  O   O11       1.0  0.42400  0.34800  0.67400  1.0000
  O   O12       1.0  0.17400  0.25000  0.92400  1.0000
  O   O13       1.0  0.17400  0.84800  0.92400  1.0000
  O   O14       1.0  0.57600  0.25000  0.92400  1.0000
  Tl  Tl1       1.0  0.00000  0.50000  0.00000  1.0000
  Tl  Tl2       1.0  0.00000  0.00000  0.50000  1.0000
  Tl  Tl3       1.0  0.00000  0.50000  0.50000  1.0000
  Tl  Tl4       1.0  0.50000  0.00000  0.50000  1.0000
