data_image0
_chemical_formula_structural       Cd2Na4O8
_chemical_formula_sum              "Cd2 Na4 O8"
_cell_length_a       6.59303
_cell_length_b       6.59303
_cell_length_c       6.59303
_cell_angle_alpha    119.99
_cell_angle_beta     90.0174
_cell_angle_gamma    119.99

_space_group_name_H-M_alt    "P 1"
_space_group_IT_number       1

loop_
  _space_group_symop_operation_xyz
  'x, y, z'

loop_
  _atom_site_type_symbol
  _atom_site_label
  _atom_site_symmetry_multiplicity
  _atom_site_fract_x
  _atom_site_fract_y
  _atom_site_fract_z
  _atom_site_occupancy
  Cd  Cd1       1.0  0.00000  0.00000  0.00000  1.0000
  Cd  Cd2       1.0  0.75000  0.50000  0.25000  1.0000
  Na  Na1       1.0  0.37500  0.75000  0.12500  1.0000
  Na  Na2       1.0  0.87500  0.25000  0.62500  1.0000
  Na  Na3       1.0  0.37500  0.25000  0.62500  1.0000
  Na  Na4       1.0  0.37500  0.75000  0.62500  1.0000
  O   O1        1.0  0.13400  0.75600  0.37800  1.0000
  O   O2        1.0  0.62200  0.24400  0.37800  1.0000
  O   O3        1.0  0.62200  0.75600  0.37800  1.0000
  O   O4        1.0  0.12800  0.25600  0.38400  1.0000
  O   O5        1.0  0.62200  0.24400  0.86600  1.0000
  O   O6        1.0  0.12800  0.74400  0.87200  1.0000
  O   O7        1.0  0.12800  0.25600  0.87200  1.0000
  O   O8        1.0  0.61600  0.74400  0.87200  1.0000
