data_image0
_chemical_formula_structural       N6Na3O12Rh
_chemical_formula_sum              "N6 Na3 O12 Rh1"
_cell_length_a       6.64668
_cell_length_b       6.64668
_cell_length_c       6.64668
_cell_angle_alpha    71.8772
_cell_angle_beta     71.8772
_cell_angle_gamma    71.8772

_space_group_name_H-M_alt    "P 1"
_space_group_IT_number       1

loop_
  _space_group_symop_operation_xyz
  'x, y, z'

loop_
  _atom_site_type_symbol
  _atom_site_label
  _atom_site_symmetry_multiplicity
  _atom_site_fract_x
  _atom_site_fract_y
  _atom_site_fract_z
  _atom_site_occupancy
  N   N1        1.0  0.79400  0.79400  0.17800  1.0000
  N   N2        1.0  0.82200  0.20600  0.20600  1.0000
  N   N3        1.0  0.20600  0.82200  0.20600  1.0000
  N   N4        1.0  0.79400  0.17800  0.79400  1.0000
  N   N5        1.0  0.17800  0.79400  0.79400  1.0000
  N   N6        1.0  0.20600  0.20600  0.82200  1.0000
  Na  Na1       1.0  0.26600  0.26600  0.26600  1.0000
  Na  Na2       1.0  0.50000  0.50000  0.50000  1.0000
  Na  Na3       1.0  0.73400  0.73400  0.73400  1.0000
  O   O1        1.0  0.71000  0.71000  0.09180  1.0000
  O   O2        1.0  0.24600  0.61900  0.24600  1.0000
  O   O3        1.0  0.61900  0.24600  0.24600  1.0000
  O   O4        1.0  0.90800  0.29000  0.29000  1.0000
  O   O5        1.0  0.29000  0.90800  0.29000  1.0000
  O   O6        1.0  0.75400  0.75400  0.38100  1.0000
  O   O7        1.0  0.24600  0.24600  0.61900  1.0000
  O   O8        1.0  0.09180  0.71000  0.71000  1.0000
  O   O9        1.0  0.71000  0.09180  0.71000  1.0000
  O   O10       1.0  0.75400  0.38100  0.75400  1.0000
  O   O11       1.0  0.38100  0.75400  0.75400  1.0000
  O   O12       1.0  0.29000  0.29000  0.90800  1.0000
  Rh  Rh1       1.0  0.00000  0.00000  0.00000  1.0000
