data_image0
_chemical_formula_structural       Hg2O8Pu4
_chemical_formula_sum              "Hg2 O8 Pu4"
_cell_length_a       7.04275
_cell_length_b       7.04275
_cell_length_c       7.04275
_cell_angle_alpha    120.013
_cell_angle_beta     89.9769
_cell_angle_gamma    120.013

_space_group_name_H-M_alt    "P 1"
_space_group_IT_number       1

loop_
  _space_group_symop_operation_xyz
  'x, y, z'

loop_
  _atom_site_type_symbol
  _atom_site_label
  _atom_site_symmetry_multiplicity
  _atom_site_fract_x
  _atom_site_fract_y
  _atom_site_fract_z
  _atom_site_occupancy
  Hg  Hg1       1.0  0.00000  0.00000  0.00000  1.0000
  Hg  Hg2       1.0  0.75000  0.50000  0.25000  1.0000
  O   O1        1.0  0.61200  0.77500  0.38800  1.0000
  O   O2        1.0  0.61200  0.22500  0.38800  1.0000
  O   O3        1.0  0.16300  0.77500  0.38800  1.0000
  O   O4        1.0  0.13800  0.27500  0.41300  1.0000
  O   O5        1.0  0.61200  0.22500  0.83700  1.0000
  O   O6        1.0  0.58700  0.72500  0.86200  1.0000
  O   O7        1.0  0.13800  0.27500  0.86200  1.0000
  O   O8        1.0  0.13800  0.72500  0.86200  1.0000
  Pu  Pu1       1.0  0.37500  0.75000  0.12500  1.0000
  Pu  Pu2       1.0  0.87500  0.25000  0.62500  1.0000
  Pu  Pu3       1.0  0.37500  0.25000  0.62500  1.0000
  Pu  Pu4       1.0  0.37500  0.75000  0.62500  1.0000
