data_image0
_chemical_formula_structural       Br15FeTh6
_chemical_formula_sum              "Br15 Fe1 Th6"
_cell_length_a       10.1113
_cell_length_b       10.1113
_cell_length_c       10.1113
_cell_angle_alpha    109.471
_cell_angle_beta     109.471
_cell_angle_gamma    109.471

_space_group_name_H-M_alt    "P 1"
_space_group_IT_number       1

loop_
  _space_group_symop_operation_xyz
  'x, y, z'

loop_
  _atom_site_type_symbol
  _atom_site_label
  _atom_site_symmetry_multiplicity
  _atom_site_fract_x
  _atom_site_fract_y
  _atom_site_fract_z
  _atom_site_occupancy
  Br  Br1       1.0  0.74900  0.25100  0.00000  1.0000
  Br  Br2       1.0  0.50000  0.50000  0.00000  1.0000
  Br  Br3       1.0  0.25100  0.74900  0.00000  1.0000
  Br  Br4       1.0  0.74900  0.00000  0.25100  1.0000
  Br  Br5       1.0  0.50200  0.25100  0.25100  1.0000
  Br  Br6       1.0  0.25100  0.50200  0.25100  1.0000
  Br  Br7       1.0  0.00000  0.74900  0.25100  1.0000
  Br  Br8       1.0  0.74900  0.74900  0.49800  1.0000
  Br  Br9       1.0  0.50000  0.00000  0.50000  1.0000
  Br  Br10      1.0  0.00000  0.50000  0.50000  1.0000
  Br  Br11      1.0  0.25100  0.25100  0.50200  1.0000
  Br  Br12      1.0  0.25100  0.00000  0.74900  1.0000
  Br  Br13      1.0  0.00000  0.25100  0.74900  1.0000
  Br  Br14      1.0  0.74900  0.49800  0.74900  1.0000
  Br  Br15      1.0  0.49800  0.74900  0.74900  1.0000
  Fe  Fe1       1.0  0.00000  0.00000  0.00000  1.0000
  Th  Th1       1.0  0.23800  0.23800  0.00000  1.0000
  Th  Th2       1.0  0.76200  0.76200  0.00000  1.0000
  Th  Th3       1.0  0.23800  0.00000  0.23800  1.0000
  Th  Th4       1.0  0.00000  0.23800  0.23800  1.0000
  Th  Th5       1.0  0.76200  0.00000  0.76200  1.0000
  Th  Th6       1.0  0.00000  0.76200  0.76200  1.0000
