data_image0
_chemical_formula_structural       Gd6O14Ru2
_chemical_formula_sum              "Gd6 O14 Ru2"
_cell_length_a       6.41954
_cell_length_b       6.41954
_cell_length_c       7.38372
_cell_angle_alpha    90
_cell_angle_beta     90
_cell_angle_gamma    68.8333

_space_group_name_H-M_alt    "P 1"
_space_group_IT_number       1

loop_
  _space_group_symop_operation_xyz
  'x, y, z'

loop_
  _atom_site_type_symbol
  _atom_site_label
  _atom_site_symmetry_multiplicity
  _atom_site_fract_x
  _atom_site_fract_y
  _atom_site_fract_z
  _atom_site_occupancy
  Gd  Gd1       1.0  0.00000  0.00000  0.00000  1.0000
  Gd  Gd2       1.0  0.47400  0.08090  0.25000  1.0000
  Gd  Gd3       1.0  0.91900  0.52600  0.25000  1.0000
  Gd  Gd4       1.0  0.00000  0.00000  0.50000  1.0000
  Gd  Gd5       1.0  0.08090  0.47400  0.75000  1.0000
  Gd  Gd6       1.0  0.52600  0.91900  0.75000  1.0000
  O   O1        1.0  0.18100  0.56200  0.04160  1.0000
  O   O2        1.0  0.43800  0.81900  0.04160  1.0000
  O   O3        1.0  0.10600  0.15800  0.25000  1.0000
  O   O4        1.0  0.59200  0.40800  0.25000  1.0000
  O   O5        1.0  0.84200  0.89400  0.25000  1.0000
  O   O6        1.0  0.18100  0.56200  0.45800  1.0000
  O   O7        1.0  0.43800  0.81900  0.45800  1.0000
  O   O8        1.0  0.56200  0.18100  0.54200  1.0000
  O   O9        1.0  0.81900  0.43800  0.54200  1.0000
  O   O10       1.0  0.15800  0.10600  0.75000  1.0000
  O   O11       1.0  0.40800  0.59200  0.75000  1.0000
  O   O12       1.0  0.89400  0.84200  0.75000  1.0000
  O   O13       1.0  0.56200  0.18100  0.95800  1.0000
  O   O14       1.0  0.81900  0.43800  0.95800  1.0000
  Ru  Ru1       1.0  0.50000  0.50000  0.00000  1.0000
  Ru  Ru2       1.0  0.50000  0.50000  0.50000  1.0000
