data_image0
_chemical_formula_structural       Li2O8Pu4
_chemical_formula_sum              "Li2 O8 Pu4"
_cell_length_a       6.83118
_cell_length_b       6.83118
_cell_length_c       6.83118
_cell_angle_alpha    119.759
_cell_angle_beta     90.4187
_cell_angle_gamma    119.759

_space_group_name_H-M_alt    "P 1"
_space_group_IT_number       1

loop_
  _space_group_symop_operation_xyz
  'x, y, z'

loop_
  _atom_site_type_symbol
  _atom_site_label
  _atom_site_symmetry_multiplicity
  _atom_site_fract_x
  _atom_site_fract_y
  _atom_site_fract_z
  _atom_site_occupancy
  Li  Li1       1.0  0.00000  0.00000  0.00000  1.0000
  Li  Li2       1.0  0.75000  0.50000  0.25000  1.0000
  O   O1        1.0  0.61200  0.77100  0.38300  1.0000
  O   O2        1.0  0.15900  0.77100  0.38800  1.0000
  O   O3        1.0  0.61700  0.22900  0.38800  1.0000
  O   O4        1.0  0.13800  0.27100  0.40900  1.0000
  O   O5        1.0  0.61200  0.22900  0.84100  1.0000
  O   O6        1.0  0.13300  0.27100  0.86200  1.0000
  O   O7        1.0  0.59100  0.72900  0.86200  1.0000
  O   O8        1.0  0.13800  0.72900  0.86700  1.0000
  Pu  Pu1       1.0  0.37500  0.75000  0.12500  1.0000
  Pu  Pu2       1.0  0.37500  0.75000  0.62500  1.0000
  Pu  Pu3       1.0  0.37500  0.25000  0.62500  1.0000
  Pu  Pu4       1.0  0.87500  0.25000  0.62500  1.0000
