data_image0
_chemical_formula_structural       Fe2O14Rb2Se4
_chemical_formula_sum              "Fe2 O14 Rb2 Se4"
_cell_length_a       5.40994
_cell_length_b       5.40993
_cell_length_c       13.577
_cell_angle_alpha    78.5079
_cell_angle_beta     101.492
_cell_angle_gamma    120

_space_group_name_H-M_alt    "P 1"
_space_group_IT_number       1

loop_
  _space_group_symop_operation_xyz
  'x, y, z'

loop_
  _atom_site_type_symbol
  _atom_site_label
  _atom_site_symmetry_multiplicity
  _atom_site_fract_x
  _atom_site_fract_y
  _atom_site_fract_z
  _atom_site_occupancy
  Fe  Fe1       1.0  0.09940  0.90100  0.29800  1.0000
  Fe  Fe2       1.0  0.90100  0.09940  0.70200  1.0000
  O   O1        1.0  0.34300  0.65700  0.02780  1.0000
  O   O2        1.0  0.73400  0.76900  0.19600  1.0000
  O   O3        1.0  0.23100  0.26600  0.19600  1.0000
  O   O4        1.0  0.23100  0.76900  0.19600  1.0000
  O   O5        1.0  0.95500  0.04530  0.38100  1.0000
  O   O6        1.0  0.95500  0.52900  0.38100  1.0000
  O   O7        1.0  0.47100  0.04530  0.38100  1.0000
  O   O8        1.0  0.52900  0.95500  0.61900  1.0000
  O   O9        1.0  0.04530  0.47100  0.61900  1.0000
  O   O10       1.0  0.04530  0.95500  0.61900  1.0000
  O   O11       1.0  0.76900  0.23100  0.80400  1.0000
  O   O12       1.0  0.76900  0.73400  0.80400  1.0000
  O   O13       1.0  0.26600  0.23100  0.80400  1.0000
  O   O14       1.0  0.65700  0.34300  0.97200  1.0000
  Rb  Rb1       1.0  0.00000  0.00000  0.00000  1.0000
  Rb  Rb2       1.0  0.50000  0.50000  0.50000  1.0000
  Se  Se1       1.0  0.38400  0.61600  0.15200  1.0000
  Se  Se2       1.0  0.77200  0.22800  0.31700  1.0000
  Se  Se3       1.0  0.22800  0.77200  0.68300  1.0000
  Se  Se4       1.0  0.61600  0.38400  0.84800  1.0000
