data_image0
_chemical_formula_structural       Al4Ni12Sm6
_chemical_formula_sum              "Al4 Ni12 Sm6"
_cell_length_a       7.79949
_cell_length_b       7.79949
_cell_length_c       7.79949
_cell_angle_alpha    109.471
_cell_angle_beta     109.471
_cell_angle_gamma    109.471

_space_group_name_H-M_alt    "P 1"
_space_group_IT_number       1

loop_
  _space_group_symop_operation_xyz
  'x, y, z'

loop_
  _atom_site_type_symbol
  _atom_site_label
  _atom_site_symmetry_multiplicity
  _atom_site_fract_x
  _atom_site_fract_y
  _atom_site_fract_z
  _atom_site_occupancy
  Al  Al1       1.0  0.50000  0.00000  0.00000  1.0000
  Al  Al2       1.0  0.00000  0.50000  0.00000  1.0000
  Al  Al3       1.0  0.00000  0.00000  0.50000  1.0000
  Al  Al4       1.0  0.50000  0.50000  0.50000  1.0000
  Ni  Ni1       1.0  0.66600  0.33400  0.00000  1.0000
  Ni  Ni2       1.0  0.33400  0.66600  0.00000  1.0000
  Ni  Ni3       1.0  0.66600  0.66600  0.33200  1.0000
  Ni  Ni4       1.0  0.66600  0.00000  0.33400  1.0000
  Ni  Ni5       1.0  0.66800  0.33400  0.33400  1.0000
  Ni  Ni6       1.0  0.00000  0.66600  0.33400  1.0000
  Ni  Ni7       1.0  0.33400  0.66800  0.33400  1.0000
  Ni  Ni8       1.0  0.33400  0.00000  0.66600  1.0000
  Ni  Ni9       1.0  0.66600  0.33200  0.66600  1.0000
  Ni  Ni10      1.0  0.00000  0.33400  0.66600  1.0000
  Ni  Ni11      1.0  0.33200  0.66600  0.66600  1.0000
  Ni  Ni12      1.0  0.33400  0.33400  0.66800  1.0000
  Sm  Sm1       1.0  0.29200  0.29200  0.00000  1.0000
  Sm  Sm2       1.0  0.70800  0.70800  0.00000  1.0000
  Sm  Sm3       1.0  0.29200  0.00000  0.29200  1.0000
  Sm  Sm4       1.0  0.00000  0.29200  0.29200  1.0000
  Sm  Sm5       1.0  0.70800  0.00000  0.70800  1.0000
  Sm  Sm6       1.0  0.00000  0.70800  0.70800  1.0000
