data_image0
_chemical_formula_structural       Np2O8Ru4
_chemical_formula_sum              "Np2 O8 Ru4"
_cell_length_a       6.38237
_cell_length_b       6.38237
_cell_length_c       6.38237
_cell_angle_alpha    119.982
_cell_angle_beta     90.0319
_cell_angle_gamma    119.982

_space_group_name_H-M_alt    "P 1"
_space_group_IT_number       1

loop_
  _space_group_symop_operation_xyz
  'x, y, z'

loop_
  _atom_site_type_symbol
  _atom_site_label
  _atom_site_symmetry_multiplicity
  _atom_site_fract_x
  _atom_site_fract_y
  _atom_site_fract_z
  _atom_site_occupancy
  Np  Np1       1.0  0.00000  0.00000  0.00000  1.0000
  Np  Np2       1.0  0.75000  0.50000  0.25000  1.0000
  O   O1        1.0  0.18200  0.78800  0.39400  1.0000
  O   O2        1.0  0.60600  0.21200  0.39400  1.0000
  O   O3        1.0  0.60600  0.78800  0.39400  1.0000
  O   O4        1.0  0.14400  0.28800  0.43200  1.0000
  O   O5        1.0  0.60600  0.21200  0.81800  1.0000
  O   O6        1.0  0.14400  0.71200  0.85600  1.0000
  O   O7        1.0  0.14400  0.28800  0.85600  1.0000
  O   O8        1.0  0.56800  0.71200  0.85600  1.0000
  Ru  Ru1       1.0  0.37500  0.75000  0.12500  1.0000
  Ru  Ru2       1.0  0.87500  0.25000  0.62500  1.0000
  Ru  Ru3       1.0  0.37500  0.25000  0.62500  1.0000
  Ru  Ru4       1.0  0.37500  0.75000  0.62500  1.0000
