data_image0
_chemical_formula_structural       O8Rb2Si4
_chemical_formula_sum              "O8 Rb2 Si4"
_cell_length_a       6.24858
_cell_length_b       6.24858
_cell_length_c       6.24858
_cell_angle_alpha    120.003
_cell_angle_beta     89.9949
_cell_angle_gamma    120.003

_space_group_name_H-M_alt    "P 1"
_space_group_IT_number       1

loop_
  _space_group_symop_operation_xyz
  'x, y, z'

loop_
  _atom_site_type_symbol
  _atom_site_label
  _atom_site_symmetry_multiplicity
  _atom_site_fract_x
  _atom_site_fract_y
  _atom_site_fract_z
  _atom_site_occupancy
  O   O1        1.0  0.59500  0.19000  0.40500  1.0000
  O   O2        1.0  0.21500  0.81000  0.40500  1.0000
  O   O3        1.0  0.59500  0.81000  0.40500  1.0000
  O   O4        1.0  0.15500  0.31000  0.46500  1.0000
  O   O5        1.0  0.59500  0.19000  0.78500  1.0000
  O   O6        1.0  0.15500  0.69000  0.84500  1.0000
  O   O7        1.0  0.15500  0.31000  0.84500  1.0000
  O   O8        1.0  0.53500  0.69000  0.84500  1.0000
  Rb  Rb1       1.0  0.00000  0.00000  0.00000  1.0000
  Rb  Rb2       1.0  0.75000  0.50000  0.25000  1.0000
  Si  Si1       1.0  0.37500  0.75000  0.12500  1.0000
  Si  Si2       1.0  0.37500  0.75000  0.62500  1.0000
  Si  Si3       1.0  0.87500  0.25000  0.62500  1.0000
  Si  Si4       1.0  0.37500  0.25000  0.62500  1.0000
