data_image0
_chemical_formula_structural       Ba2Ti6
_chemical_formula_sum              "Ba2 Ti6"
_cell_length_a       7.21168
_cell_length_b       7.21168
_cell_length_c       4.96682
_cell_angle_alpha    90
_cell_angle_beta     90
_cell_angle_gamma    120

_space_group_name_H-M_alt    "P 1"
_space_group_IT_number       1

loop_
  _space_group_symop_operation_xyz
  'x, y, z'

loop_
  _atom_site_type_symbol
  _atom_site_label
  _atom_site_symmetry_multiplicity
  _atom_site_fract_x
  _atom_site_fract_y
  _atom_site_fract_z
  _atom_site_occupancy
  Ba  Ba1       1.0  0.66700  0.33300  0.25000  1.0000
  Ba  Ba2       1.0  0.33300  0.66700  0.75000  1.0000
  Ti  Ti1       1.0  0.11900  0.23800  0.25000  1.0000
  Ti  Ti2       1.0  0.11900  0.88100  0.25000  1.0000
  Ti  Ti3       1.0  0.76200  0.88100  0.25000  1.0000
  Ti  Ti4       1.0  0.23800  0.11900  0.75000  1.0000
  Ti  Ti5       1.0  0.88100  0.11900  0.75000  1.0000
  Ti  Ti6       1.0  0.88100  0.76200  0.75000  1.0000
