data_image0
_chemical_formula_structural       Al6K2
_chemical_formula_sum              "Al6 K2"
_cell_length_a       7.61559
_cell_length_b       7.61558
_cell_length_c       4.57836
_cell_angle_alpha    90
_cell_angle_beta     90
_cell_angle_gamma    120

_space_group_name_H-M_alt    "P 1"
_space_group_IT_number       1

loop_
  _space_group_symop_operation_xyz
  'x, y, z'

loop_
  _atom_site_type_symbol
  _atom_site_label
  _atom_site_symmetry_multiplicity
  _atom_site_fract_x
  _atom_site_fract_y
  _atom_site_fract_z
  _atom_site_occupancy
  Al  Al1       1.0  0.12100  0.24100  0.25000  1.0000
  Al  Al2       1.0  0.12100  0.87900  0.25000  1.0000
  Al  Al3       1.0  0.75900  0.87900  0.25000  1.0000
  Al  Al4       1.0  0.24100  0.12100  0.75000  1.0000
  Al  Al5       1.0  0.87900  0.12100  0.75000  1.0000
  Al  Al6       1.0  0.87900  0.75900  0.75000  1.0000
  K   K1        1.0  0.66700  0.33300  0.25000  1.0000
  K   K2        1.0  0.33300  0.66700  0.75000  1.0000
