data_image0
_chemical_formula_structural       Cl2Fe6
_chemical_formula_sum              "Cl2 Fe6"
_cell_length_a       5.80725
_cell_length_b       5.80725
_cell_length_c       4.17653
_cell_angle_alpha    90
_cell_angle_beta     90
_cell_angle_gamma    120

_space_group_name_H-M_alt    "P 1"
_space_group_IT_number       1

loop_
  _space_group_symop_operation_xyz
  'x, y, z'

loop_
  _atom_site_type_symbol
  _atom_site_label
  _atom_site_symmetry_multiplicity
  _atom_site_fract_x
  _atom_site_fract_y
  _atom_site_fract_z
  _atom_site_occupancy
  Cl  Cl1       1.0  0.66700  0.33300  0.25000  1.0000
  Cl  Cl2       1.0  0.33300  0.66700  0.75000  1.0000
  Fe  Fe1       1.0  0.13900  0.27800  0.25000  1.0000
  Fe  Fe2       1.0  0.13900  0.86100  0.25000  1.0000
  Fe  Fe3       1.0  0.72200  0.86100  0.25000  1.0000
  Fe  Fe4       1.0  0.27800  0.13900  0.75000  1.0000
  Fe  Fe5       1.0  0.86100  0.13900  0.75000  1.0000
  Fe  Fe6       1.0  0.86100  0.72200  0.75000  1.0000
