data_image0
_chemical_formula_structural       Mn4Na8O10
_chemical_formula_sum              "Mn4 Na8 O10"
_cell_length_a       5.51529
_cell_length_b       5.51529
_cell_length_c       10.2066
_cell_angle_alpha    98.4794
_cell_angle_beta     98.4794
_cell_angle_gamma    117.016

_space_group_name_H-M_alt    "P 1"
_space_group_IT_number       1

loop_
  _space_group_symop_operation_xyz
  'x, y, z'

loop_
  _atom_site_type_symbol
  _atom_site_label
  _atom_site_symmetry_multiplicity
  _atom_site_fract_x
  _atom_site_fract_y
  _atom_site_fract_z
  _atom_site_occupancy
  Mn  Mn1       1.0  0.34600  0.15400  0.25000  1.0000
  Mn  Mn2       1.0  0.90400  0.59600  0.25000  1.0000
  Mn  Mn3       1.0  0.09610  0.40400  0.75000  1.0000
  Mn  Mn4       1.0  0.65400  0.84600  0.75000  1.0000
  Na  Na1       1.0  0.78800  0.03780  0.07030  1.0000
  Na  Na2       1.0  0.28200  0.53300  0.07030  1.0000
  Na  Na3       1.0  0.96700  0.21800  0.43000  1.0000
  Na  Na4       1.0  0.46200  0.71200  0.43000  1.0000
  Na  Na5       1.0  0.53800  0.28800  0.57000  1.0000
  Na  Na6       1.0  0.03250  0.78200  0.57000  1.0000
  Na  Na7       1.0  0.71800  0.46700  0.93000  1.0000
  Na  Na8       1.0  0.21200  0.96200  0.93000  1.0000
  O   O1        1.0  0.55700  0.30700  0.11500  1.0000
  O   O2        1.0  0.05860  0.80900  0.11700  1.0000
  O   O3        1.0  0.12500  0.37500  0.25000  1.0000
  O   O4        1.0  0.69100  0.44100  0.38300  1.0000
  O   O5        1.0  0.19300  0.94300  0.38500  1.0000
  O   O6        1.0  0.80700  0.05750  0.61500  1.0000
  O   O7        1.0  0.30900  0.55900  0.61700  1.0000
  O   O8        1.0  0.87500  0.62500  0.75000  1.0000
  O   O9        1.0  0.94100  0.19100  0.88300  1.0000
  O   O10       1.0  0.44300  0.69300  0.88500  1.0000
