data_image0
_chemical_formula_structural       Dy6Ga4Ni12
_chemical_formula_sum              "Dy6 Ga4 Ni12"
_cell_length_a       7.69839
_cell_length_b       7.69839
_cell_length_c       7.69839
_cell_angle_alpha    109.471
_cell_angle_beta     109.471
_cell_angle_gamma    109.471

_space_group_name_H-M_alt    "P 1"
_space_group_IT_number       1

loop_
  _space_group_symop_operation_xyz
  'x, y, z'

loop_
  _atom_site_type_symbol
  _atom_site_label
  _atom_site_symmetry_multiplicity
  _atom_site_fract_x
  _atom_site_fract_y
  _atom_site_fract_z
  _atom_site_occupancy
  Dy  Dy1       1.0  0.29100  0.29100  0.00000  1.0000
  Dy  Dy2       1.0  0.70900  0.70900  0.00000  1.0000
  Dy  Dy3       1.0  0.29100  0.00000  0.29100  1.0000
  Dy  Dy4       1.0  0.00000  0.29100  0.29100  1.0000
  Dy  Dy5       1.0  0.70900  0.00000  0.70900  1.0000
  Dy  Dy6       1.0  0.00000  0.70900  0.70900  1.0000
  Ga  Ga1       1.0  0.50000  0.00000  0.00000  1.0000
  Ga  Ga2       1.0  0.00000  0.50000  0.00000  1.0000
  Ga  Ga3       1.0  0.00000  0.00000  0.50000  1.0000
  Ga  Ga4       1.0  0.50000  0.50000  0.50000  1.0000
  Ni  Ni1       1.0  0.66300  0.33700  0.00000  1.0000
  Ni  Ni2       1.0  0.33700  0.66300  0.00000  1.0000
  Ni  Ni3       1.0  0.66300  0.66300  0.32600  1.0000
  Ni  Ni4       1.0  0.66300  0.00000  0.33700  1.0000
  Ni  Ni5       1.0  0.67400  0.33700  0.33700  1.0000
  Ni  Ni6       1.0  0.00000  0.66300  0.33700  1.0000
  Ni  Ni7       1.0  0.33700  0.67400  0.33700  1.0000
  Ni  Ni8       1.0  0.33700  0.00000  0.66300  1.0000
  Ni  Ni9       1.0  0.66300  0.32600  0.66300  1.0000
  Ni  Ni10      1.0  0.00000  0.33700  0.66300  1.0000
  Ni  Ni11      1.0  0.32600  0.66300  0.66300  1.0000
  Ni  Ni12      1.0  0.33700  0.33700  0.67400  1.0000
