data_image0
_chemical_formula_structural       Cs6F14Ni2
_chemical_formula_sum              "Cs6 F14 Ni2"
_cell_length_a       8.00844
_cell_length_b       8.00844
_cell_length_c       6.02683
_cell_angle_alpha    90
_cell_angle_beta     90
_cell_angle_gamma    90

_space_group_name_H-M_alt    "P 1"
_space_group_IT_number       1

loop_
  _space_group_symop_operation_xyz
  'x, y, z'

loop_
  _atom_site_type_symbol
  _atom_site_label
  _atom_site_symmetry_multiplicity
  _atom_site_fract_x
  _atom_site_fract_y
  _atom_site_fract_z
  _atom_site_occupancy
  Cs  Cs1       1.0  0.00000  0.00000  0.00000  1.0000
  Cs  Cs2       1.0  0.50000  0.50000  0.00000  1.0000
  Cs  Cs3       1.0  0.69200  0.19200  0.50000  1.0000
  Cs  Cs4       1.0  0.19200  0.30800  0.50000  1.0000
  Cs  Cs5       1.0  0.80800  0.69200  0.50000  1.0000
  Cs  Cs6       1.0  0.30800  0.80800  0.50000  1.0000
  F   F1        1.0  0.65900  0.15900  0.00000  1.0000
  F   F2        1.0  0.15900  0.34100  0.00000  1.0000
  F   F3        1.0  0.84100  0.65900  0.00000  1.0000
  F   F4        1.0  0.34100  0.84100  0.00000  1.0000
  F   F5        1.0  0.38700  0.11300  0.21200  1.0000
  F   F6        1.0  0.88700  0.38700  0.21200  1.0000
  F   F7        1.0  0.11300  0.61300  0.21200  1.0000
  F   F8        1.0  0.61300  0.88700  0.21200  1.0000
  F   F9        1.0  0.00000  0.00000  0.50000  1.0000
  F   F10       1.0  0.50000  0.50000  0.50000  1.0000
  F   F11       1.0  0.38700  0.11300  0.78800  1.0000
  F   F12       1.0  0.88700  0.38700  0.78800  1.0000
  F   F13       1.0  0.11300  0.61300  0.78800  1.0000
  F   F14       1.0  0.61300  0.88700  0.78800  1.0000
  Ni  Ni1       1.0  0.50000  0.00000  0.00000  1.0000
  Ni  Ni2       1.0  0.00000  0.50000  0.00000  1.0000
