data_image0
_chemical_formula_structural       O12Rh2Sc2Sr6
_chemical_formula_sum              "O12 Rh2 Sc2 Sr6"
_cell_length_a       6.68407
_cell_length_b       6.68407
_cell_length_c       6.68407
_cell_angle_alpha    92.536
_cell_angle_beta     92.536
_cell_angle_gamma    92.536

_space_group_name_H-M_alt    "P 1"
_space_group_IT_number       1

loop_
  _space_group_symop_operation_xyz
  'x, y, z'

loop_
  _atom_site_type_symbol
  _atom_site_label
  _atom_site_symmetry_multiplicity
  _atom_site_fract_x
  _atom_site_fract_y
  _atom_site_fract_z
  _atom_site_occupancy
  O   O1        1.0  0.90200  0.70500  0.03400  1.0000
  O   O2        1.0  0.29500  0.96600  0.09810  1.0000
  O   O3        1.0  0.40200  0.53400  0.20500  1.0000
  O   O4        1.0  0.96600  0.09810  0.29500  1.0000
  O   O5        1.0  0.53400  0.20500  0.40200  1.0000
  O   O6        1.0  0.79500  0.59800  0.46600  1.0000
  O   O7        1.0  0.20500  0.40200  0.53400  1.0000
  O   O8        1.0  0.46600  0.79500  0.59800  1.0000
  O   O9        1.0  0.03400  0.90200  0.70500  1.0000
  O   O10       1.0  0.59800  0.46600  0.79500  1.0000
  O   O11       1.0  0.70500  0.03400  0.90200  1.0000
  O   O12       1.0  0.09810  0.29500  0.96600  1.0000
  Rh  Rh1       1.0  0.00000  0.00000  0.00000  1.0000
  Rh  Rh2       1.0  0.50000  0.50000  0.50000  1.0000
  Sc  Sc1       1.0  0.25000  0.25000  0.25000  1.0000
  Sc  Sc2       1.0  0.75000  0.75000  0.75000  1.0000
  Sr  Sr1       1.0  0.75000  0.37900  0.12100  1.0000
  Sr  Sr2       1.0  0.62100  0.87900  0.25000  1.0000
  Sr  Sr3       1.0  0.12100  0.75000  0.37900  1.0000
  Sr  Sr4       1.0  0.87900  0.25000  0.62100  1.0000
  Sr  Sr5       1.0  0.37900  0.12100  0.75000  1.0000
  Sr  Sr6       1.0  0.25000  0.62100  0.87900  1.0000
