data_image0
_chemical_formula_structural       Gd2Ge4Mn2O14
_chemical_formula_sum              "Gd2 Ge4 Mn2 O14"
_cell_length_a       4.7597
_cell_length_b       7.78325
_cell_length_c       7.78325
_cell_angle_alpha    119.82
_cell_angle_beta     90
_cell_angle_gamma    90

_space_group_name_H-M_alt    "P 1"
_space_group_IT_number       1

loop_
  _space_group_symop_operation_xyz
  'x, y, z'

loop_
  _atom_site_type_symbol
  _atom_site_label
  _atom_site_symmetry_multiplicity
  _atom_site_fract_x
  _atom_site_fract_y
  _atom_site_fract_z
  _atom_site_occupancy
  Gd  Gd1       1.0  0.00000  0.00000  0.00000  1.0000
  Gd  Gd2       1.0  0.00000  0.50000  0.50000  1.0000
  Ge  Ge1       1.0  0.51700  0.38600  0.11500  1.0000
  Ge  Ge2       1.0  0.48300  0.11500  0.38600  1.0000
  Ge  Ge3       1.0  0.48300  0.88500  0.61400  1.0000
  Ge  Ge4       1.0  0.51700  0.61400  0.88500  1.0000
  Mn  Mn1       1.0  0.00000  0.75000  0.25000  1.0000
  Mn  Mn2       1.0  0.00000  0.25000  0.75000  1.0000
  O   O1        1.0  0.30800  0.50000  0.00000  1.0000
  O   O2        1.0  0.75600  0.78000  0.06920  1.0000
  O   O3        1.0  0.25700  0.29400  0.20600  1.0000
  O   O4        1.0  0.24400  0.93100  0.22000  1.0000
  O   O5        1.0  0.75500  0.57000  0.28100  1.0000
  O   O6        1.0  0.74300  0.20600  0.29400  1.0000
  O   O7        1.0  0.24500  0.71900  0.43000  1.0000
  O   O8        1.0  0.69200  0.00000  0.50000  1.0000
  O   O9        1.0  0.24500  0.28100  0.57000  1.0000
  O   O10       1.0  0.74300  0.79400  0.70600  1.0000
  O   O11       1.0  0.75500  0.43000  0.71900  1.0000
  O   O12       1.0  0.24400  0.06920  0.78000  1.0000
  O   O13       1.0  0.25700  0.70600  0.79400  1.0000
  O   O14       1.0  0.75600  0.22000  0.93100  1.0000
