data_image0
_chemical_formula_structural       Mg4Te6
_chemical_formula_sum              "Mg4 Te6"
_cell_length_a       7.72147
_cell_length_b       7.72147
_cell_length_c       7.26508
_cell_angle_alpha    122.101
_cell_angle_beta     57.8992
_cell_angle_gamma    120

_space_group_name_H-M_alt    "P 1"
_space_group_IT_number       1

loop_
  _space_group_symop_operation_xyz
  'x, y, z'

loop_
  _atom_site_type_symbol
  _atom_site_label
  _atom_site_symmetry_multiplicity
  _atom_site_fract_x
  _atom_site_fract_y
  _atom_site_fract_z
  _atom_site_occupancy
  Mg  Mg1       1.0  0.65300  0.34700  0.04230  1.0000
  Mg  Mg2       1.0  0.84700  0.15300  0.45800  1.0000
  Mg  Mg3       1.0  0.15300  0.84700  0.54200  1.0000
  Mg  Mg4       1.0  0.34700  0.65300  0.95800  1.0000
  Te  Te1       1.0  0.57600  0.75000  0.25000  1.0000
  Te  Te2       1.0  0.92400  0.42400  0.25000  1.0000
  Te  Te3       1.0  0.25000  0.07600  0.25000  1.0000
  Te  Te4       1.0  0.75000  0.92400  0.75000  1.0000
  Te  Te5       1.0  0.07600  0.57600  0.75000  1.0000
  Te  Te6       1.0  0.42400  0.25000  0.75000  1.0000
