data_image0
_chemical_formula_structural       Al6O12SSr4
_chemical_formula_sum              "Al6 O12 S1 Sr4"
_cell_length_a       8.00672
_cell_length_b       8.00672
_cell_length_c       8.00672
_cell_angle_alpha    109.471
_cell_angle_beta     109.471
_cell_angle_gamma    109.471

_space_group_name_H-M_alt    "P 1"
_space_group_IT_number       1

loop_
  _space_group_symop_operation_xyz
  'x, y, z'

loop_
  _atom_site_type_symbol
  _atom_site_label
  _atom_site_symmetry_multiplicity
  _atom_site_fract_x
  _atom_site_fract_y
  _atom_site_fract_z
  _atom_site_occupancy
  Al  Al1       1.0  0.75000  0.50000  0.25000  1.0000
  Al  Al2       1.0  0.50000  0.75000  0.25000  1.0000
  Al  Al3       1.0  0.75000  0.25000  0.50000  1.0000
  Al  Al4       1.0  0.25000  0.75000  0.50000  1.0000
  Al  Al5       1.0  0.50000  0.25000  0.75000  1.0000
  Al  Al6       1.0  0.25000  0.50000  0.75000  1.0000
  O   O1        1.0  0.59500  0.29100  0.00000  1.0000
  O   O2        1.0  0.29100  0.59500  0.00000  1.0000
  O   O3        1.0  0.59500  0.00000  0.29100  1.0000
  O   O4        1.0  0.00000  0.59500  0.29100  1.0000
  O   O5        1.0  0.70900  0.70900  0.30400  1.0000
  O   O6        1.0  0.69600  0.40500  0.40500  1.0000
  O   O7        1.0  0.40500  0.69600  0.40500  1.0000
  O   O8        1.0  0.29100  0.00000  0.59500  1.0000
  O   O9        1.0  0.00000  0.29100  0.59500  1.0000
  O   O10       1.0  0.40500  0.40500  0.69600  1.0000
  O   O11       1.0  0.70900  0.30400  0.70900  1.0000
  O   O12       1.0  0.30400  0.70900  0.70900  1.0000
  S   S1        1.0  0.00000  0.00000  0.00000  1.0000
  Sr  Sr1       1.0  0.36300  0.00000  0.00000  1.0000
  Sr  Sr2       1.0  0.00000  0.36300  0.00000  1.0000
  Sr  Sr3       1.0  0.00000  0.00000  0.36300  1.0000
  Sr  Sr4       1.0  0.63700  0.63700  0.63700  1.0000
