data_image0
_chemical_formula_structural       Ga3O14Si2Sr3Ta
_chemical_formula_sum              "Ga3 O14 Si2 Sr3 Ta1"
_cell_length_a       8.27757
_cell_length_b       8.2775
_cell_length_c       5.07288
_cell_angle_alpha    90
_cell_angle_beta     89.9992
_cell_angle_gamma    120

_space_group_name_H-M_alt    "P 1"
_space_group_IT_number       1

loop_
  _space_group_symop_operation_xyz
  'x, y, z'

loop_
  _atom_site_type_symbol
  _atom_site_label
  _atom_site_symmetry_multiplicity
  _atom_site_fract_x
  _atom_site_fract_y
  _atom_site_fract_z
  _atom_site_occupancy
  Ga  Ga1       1.0  0.74700  0.00000  0.50000  1.0000
  Ga  Ga2       1.0  0.00000  0.74700  0.50000  1.0000
  Ga  Ga3       1.0  0.25300  0.25300  0.50000  1.0000
  O   O1        1.0  0.33300  0.66700  0.22000  1.0000
  O   O2        1.0  0.13100  0.90800  0.23200  1.0000
  O   O3        1.0  0.09210  0.22300  0.23200  1.0000
  O   O4        1.0  0.77700  0.86900  0.23200  1.0000
  O   O5        1.0  0.47400  0.30700  0.32600  1.0000
  O   O6        1.0  0.69300  0.16600  0.32600  1.0000
  O   O7        1.0  0.83400  0.52600  0.32600  1.0000
  O   O8        1.0  0.16600  0.69300  0.67400  1.0000
  O   O9        1.0  0.30700  0.47400  0.67400  1.0000
  O   O10       1.0  0.52600  0.83400  0.67400  1.0000
  O   O11       1.0  0.22300  0.09210  0.76800  1.0000
  O   O12       1.0  0.90800  0.13100  0.76800  1.0000
  O   O13       1.0  0.86900  0.77700  0.76800  1.0000
  O   O14       1.0  0.66700  0.33300  0.78000  1.0000
  Si  Si1       1.0  0.66700  0.33300  0.46400  1.0000
  Si  Si2       1.0  0.33300  0.66700  0.53600  1.0000
  Sr  Sr1       1.0  0.43100  0.00000  0.00000  1.0000
  Sr  Sr2       1.0  0.00000  0.43100  0.00000  1.0000
  Sr  Sr3       1.0  0.56900  0.56900  0.00000  1.0000
  Ta  Ta1       1.0  0.00000  0.00000  0.00000  1.0000
