data_image0
_chemical_formula_structural       Li2Ti6
_chemical_formula_sum              "Li2 Ti6"
_cell_length_a       5.72616
_cell_length_b       5.72616
_cell_length_c       4.60033
_cell_angle_alpha    90
_cell_angle_beta     90
_cell_angle_gamma    120

_space_group_name_H-M_alt    "P 1"
_space_group_IT_number       1

loop_
  _space_group_symop_operation_xyz
  'x, y, z'

loop_
  _atom_site_type_symbol
  _atom_site_label
  _atom_site_symmetry_multiplicity
  _atom_site_fract_x
  _atom_site_fract_y
  _atom_site_fract_z
  _atom_site_occupancy
  Li  Li1       1.0  0.66700  0.33300  0.25000  1.0000
  Li  Li2       1.0  0.33300  0.66700  0.75000  1.0000
  Ti  Ti1       1.0  0.16900  0.33900  0.25000  1.0000
  Ti  Ti2       1.0  0.16900  0.83100  0.25000  1.0000
  Ti  Ti3       1.0  0.66100  0.83100  0.25000  1.0000
  Ti  Ti4       1.0  0.33900  0.16900  0.75000  1.0000
  Ti  Ti5       1.0  0.83100  0.16900  0.75000  1.0000
  Ti  Ti6       1.0  0.83100  0.66100  0.75000  1.0000
