data_image0
_chemical_formula_structural       Fe6Pr2
_chemical_formula_sum              "Fe6 Pr2"
_cell_length_a       6.12505
_cell_length_b       6.12504
_cell_length_c       4.28325
_cell_angle_alpha    90
_cell_angle_beta     90
_cell_angle_gamma    120

_space_group_name_H-M_alt    "P 1"
_space_group_IT_number       1

loop_
  _space_group_symop_operation_xyz
  'x, y, z'

loop_
  _atom_site_type_symbol
  _atom_site_label
  _atom_site_symmetry_multiplicity
  _atom_site_fract_x
  _atom_site_fract_y
  _atom_site_fract_z
  _atom_site_occupancy
  Fe  Fe1       1.0  0.12900  0.25800  0.25000  1.0000
  Fe  Fe2       1.0  0.12900  0.87100  0.25000  1.0000
  Fe  Fe3       1.0  0.74200  0.87100  0.25000  1.0000
  Fe  Fe4       1.0  0.25800  0.12900  0.75000  1.0000
  Fe  Fe5       1.0  0.87100  0.12900  0.75000  1.0000
  Fe  Fe6       1.0  0.87100  0.74200  0.75000  1.0000
  Pr  Pr1       1.0  0.66700  0.33300  0.25000  1.0000
  Pr  Pr2       1.0  0.33300  0.66700  0.75000  1.0000
