data_image0
_chemical_formula_structural       Ge4Ni6
_chemical_formula_sum              "Ge4 Ni6"
_cell_length_a       6.29193
_cell_length_b       6.29193
_cell_length_c       5.41025
_cell_angle_alpha    125.555
_cell_angle_beta     54.4452
_cell_angle_gamma    120

_space_group_name_H-M_alt    "P 1"
_space_group_IT_number       1

loop_
  _space_group_symop_operation_xyz
  'x, y, z'

loop_
  _atom_site_type_symbol
  _atom_site_label
  _atom_site_symmetry_multiplicity
  _atom_site_fract_x
  _atom_site_fract_y
  _atom_site_fract_z
  _atom_site_occupancy
  Ge  Ge1       1.0  0.60600  0.39400  0.18300  1.0000
  Ge  Ge2       1.0  0.89400  0.10600  0.31700  1.0000
  Ge  Ge3       1.0  0.10600  0.89400  0.68300  1.0000
  Ge  Ge4       1.0  0.39400  0.60600  0.81700  1.0000
  Ni  Ni1       1.0  0.51000  0.75000  0.25000  1.0000
  Ni  Ni2       1.0  0.99000  0.49000  0.25000  1.0000
  Ni  Ni3       1.0  0.25000  0.01040  0.25000  1.0000
  Ni  Ni4       1.0  0.75000  0.99000  0.75000  1.0000
  Ni  Ni5       1.0  0.01040  0.51000  0.75000  1.0000
  Ni  Ni6       1.0  0.49000  0.25000  0.75000  1.0000
