data_image0
_chemical_formula_structural       Al4Mn6
_chemical_formula_sum              "Al4 Mn6"
_cell_length_a       6.99104
_cell_length_b       6.99104
_cell_length_c       5.27611
_cell_angle_alpha    131.492
_cell_angle_beta     48.5077
_cell_angle_gamma    120

_space_group_name_H-M_alt    "P 1"
_space_group_IT_number       1

loop_
  _space_group_symop_operation_xyz
  'x, y, z'

loop_
  _atom_site_type_symbol
  _atom_site_label
  _atom_site_symmetry_multiplicity
  _atom_site_fract_x
  _atom_site_fract_y
  _atom_site_fract_z
  _atom_site_occupancy
  Al  Al1       1.0  0.62200  0.37800  0.13500  1.0000
  Al  Al2       1.0  0.87800  0.12200  0.36500  1.0000
  Al  Al3       1.0  0.12200  0.87800  0.63500  1.0000
  Al  Al4       1.0  0.37800  0.62200  0.86500  1.0000
  Mn  Mn1       1.0  0.25000  0.05810  0.25000  1.0000
  Mn  Mn2       1.0  0.55800  0.75000  0.25000  1.0000
  Mn  Mn3       1.0  0.94200  0.44200  0.25000  1.0000
  Mn  Mn4       1.0  0.05810  0.55800  0.75000  1.0000
  Mn  Mn5       1.0  0.44200  0.25000  0.75000  1.0000
  Mn  Mn6       1.0  0.75000  0.94200  0.75000  1.0000
