data_image0
_chemical_formula_structural       Al4La6
_chemical_formula_sum              "Al4 La6"
_cell_length_a       6.81143
_cell_length_b       6.81143
_cell_length_c       8.57714
_cell_angle_alpha    113.395
_cell_angle_beta     66.6049
_cell_angle_gamma    120

_space_group_name_H-M_alt    "P 1"
_space_group_IT_number       1

loop_
  _space_group_symop_operation_xyz
  'x, y, z'

loop_
  _atom_site_type_symbol
  _atom_site_label
  _atom_site_symmetry_multiplicity
  _atom_site_fract_x
  _atom_site_fract_y
  _atom_site_fract_z
  _atom_site_occupancy
  Al  Al1       1.0  0.30600  0.69400  0.08140  1.0000
  Al  Al2       1.0  0.19400  0.80600  0.41900  1.0000
  Al  Al3       1.0  0.80600  0.19400  0.58100  1.0000
  Al  Al4       1.0  0.69400  0.30600  0.91900  1.0000
  La  La1       1.0  0.68800  0.75000  0.25000  1.0000
  La  La2       1.0  0.81200  0.31200  0.25000  1.0000
  La  La3       1.0  0.25000  0.18800  0.25000  1.0000
  La  La4       1.0  0.75000  0.81200  0.75000  1.0000
  La  La5       1.0  0.18800  0.68800  0.75000  1.0000
  La  La6       1.0  0.31200  0.25000  0.75000  1.0000
