data_image0
_chemical_formula_structural       Ir4Ti6
_chemical_formula_sum              "Ir4 Ti6"
_cell_length_a       5.38374
_cell_length_b       5.38374
_cell_length_c       7.27365
_cell_angle_alpha    111.721
_cell_angle_beta     68.2791
_cell_angle_gamma    120

_space_group_name_H-M_alt    "P 1"
_space_group_IT_number       1

loop_
  _space_group_symop_operation_xyz
  'x, y, z'

loop_
  _atom_site_type_symbol
  _atom_site_label
  _atom_site_symmetry_multiplicity
  _atom_site_fract_x
  _atom_site_fract_y
  _atom_site_fract_z
  _atom_site_occupancy
  Ir  Ir1       1.0  0.31600  0.68400  0.05170  1.0000
  Ir  Ir2       1.0  0.18400  0.81600  0.44800  1.0000
  Ir  Ir3       1.0  0.81600  0.18400  0.55200  1.0000
  Ir  Ir4       1.0  0.68400  0.31600  0.94800  1.0000
  Ti  Ti1       1.0  0.25000  0.19900  0.25000  1.0000
  Ti  Ti2       1.0  0.80100  0.30100  0.25000  1.0000
  Ti  Ti3       1.0  0.69900  0.75000  0.25000  1.0000
  Ti  Ti4       1.0  0.30100  0.25000  0.75000  1.0000
  Ti  Ti5       1.0  0.19900  0.69900  0.75000  1.0000
  Ti  Ti6       1.0  0.75000  0.80100  0.75000  1.0000
