data_image0
_chemical_formula_structural       C2NiTh2
_chemical_formula_sum              "C2 Ni1 Th2"
_cell_length_a       3.76577
_cell_length_b       3.76577
_cell_length_c       6.71568
_cell_angle_alpha    106.282
_cell_angle_beta     106.282
_cell_angle_gamma    90

_space_group_name_H-M_alt    "P 1"
_space_group_IT_number       1

loop_
  _space_group_symop_operation_xyz
  'x, y, z'

loop_
  _atom_site_type_symbol
  _atom_site_label
  _atom_site_symmetry_multiplicity
  _atom_site_fract_x
  _atom_site_fract_y
  _atom_site_fract_z
  _atom_site_occupancy
  C   C1        1.0  0.15600  0.15600  0.31200  1.0000
  C   C2        1.0  0.84400  0.84400  0.68800  1.0000
  Ni  Ni1       1.0  0.00000  0.00000  0.00000  1.0000
  Th  Th1       1.0  0.64600  0.64600  0.29200  1.0000
  Th  Th2       1.0  0.35400  0.35400  0.70800  1.0000
