data_image0
_chemical_formula_structural       Au3Ho3Mg3
_chemical_formula_sum              "Au3 Ho3 Mg3"
_cell_length_a       7.53845
_cell_length_b       7.53845
_cell_length_c       4.09146
_cell_angle_alpha    90
_cell_angle_beta     90
_cell_angle_gamma    120

_space_group_name_H-M_alt    "P 1"
_space_group_IT_number       1

loop_
  _space_group_symop_operation_xyz
  'x, y, z'

loop_
  _atom_site_type_symbol
  _atom_site_label
  _atom_site_symmetry_multiplicity
  _atom_site_fract_x
  _atom_site_fract_y
  _atom_site_fract_z
  _atom_site_occupancy
  Au  Au1       1.0  0.66700  0.33300  0.00000  1.0000
  Au  Au2       1.0  0.33300  0.66700  0.00000  1.0000
  Au  Au3       1.0  0.00000  0.00000  0.50000  1.0000
  Ho  Ho1       1.0  0.58800  0.00000  0.50000  1.0000
  Ho  Ho2       1.0  0.41200  0.41200  0.50000  1.0000
  Ho  Ho3       1.0  0.00000  0.58800  0.50000  1.0000
  Mg  Mg1       1.0  0.24900  0.00000  0.00000  1.0000
  Mg  Mg2       1.0  0.00000  0.24900  0.00000  1.0000
  Mg  Mg3       1.0  0.75100  0.75100  0.00000  1.0000
