data_image0
_chemical_formula_structural       La2O7Sc2Sr
_chemical_formula_sum              "La2 O7 Sc2 Sr1"
_cell_length_a       4.05025
_cell_length_b       4.05025
_cell_length_c       10.7164
_cell_angle_alpha    100.879
_cell_angle_beta     100.879
_cell_angle_gamma    90.0719

_space_group_name_H-M_alt    "P 1"
_space_group_IT_number       1

loop_
  _space_group_symop_operation_xyz
  'x, y, z'

loop_
  _atom_site_type_symbol
  _atom_site_label
  _atom_site_symmetry_multiplicity
  _atom_site_fract_x
  _atom_site_fract_y
  _atom_site_fract_z
  _atom_site_occupancy
  La  La1       1.0  0.68300  0.68300  0.36600  1.0000
  La  La2       1.0  0.31700  0.31700  0.63400  1.0000
  O   O1        1.0  0.00000  0.00000  0.00000  1.0000
  O   O2        1.0  0.60800  0.10800  0.21600  1.0000
  O   O3        1.0  0.10800  0.60800  0.21600  1.0000
  O   O4        1.0  0.20800  0.20800  0.41600  1.0000
  O   O5        1.0  0.79200  0.79200  0.58400  1.0000
  O   O6        1.0  0.89200  0.39200  0.78400  1.0000
  O   O7        1.0  0.39200  0.89200  0.78400  1.0000
  Sc  Sc1       1.0  0.09810  0.09810  0.19600  1.0000
  Sc  Sc2       1.0  0.90200  0.90200  0.80400  1.0000
  Sr  Sr1       1.0  0.50000  0.50000  0.00000  1.0000
