data_image0
_chemical_formula_structural       Ba2Cu3GdO7
_chemical_formula_sum              "Ba2 Cu3 Gd1 O7"
_cell_length_a       3.82575
_cell_length_b       3.88398
_cell_length_c       11.6541
_cell_angle_alpha    90
_cell_angle_beta     90
_cell_angle_gamma    90

_space_group_name_H-M_alt    "P 1"
_space_group_IT_number       1

loop_
  _space_group_symop_operation_xyz
  'x, y, z'

loop_
  _atom_site_type_symbol
  _atom_site_label
  _atom_site_symmetry_multiplicity
  _atom_site_fract_x
  _atom_site_fract_y
  _atom_site_fract_z
  _atom_site_occupancy
  Ba  Ba1       1.0  0.50000  0.50000  0.18200  1.0000
  Ba  Ba2       1.0  0.50000  0.50000  0.81800  1.0000
  Cu  Cu1       1.0  0.00000  0.00000  0.00000  1.0000
  Cu  Cu2       1.0  0.00000  0.00000  0.35300  1.0000
  Cu  Cu3       1.0  0.00000  0.00000  0.64700  1.0000
  Gd  Gd1       1.0  0.50000  0.50000  0.50000  1.0000
  O   O1        1.0  0.00000  0.50000  0.00000  1.0000
  O   O2        1.0  0.00000  0.00000  0.15900  1.0000
  O   O3        1.0  0.50000  0.00000  0.37600  1.0000
  O   O4        1.0  0.00000  0.50000  0.37600  1.0000
  O   O5        1.0  0.00000  0.50000  0.62400  1.0000
  O   O6        1.0  0.50000  0.00000  0.62400  1.0000
  O   O7        1.0  0.00000  0.00000  0.84100  1.0000
