data_image0
_chemical_formula_structural       Li2O5S2Ti2Y2
_chemical_formula_sum              "Li2 O5 S2 Ti2 Y2"
_cell_length_a       3.9836
_cell_length_b       3.9836
_cell_length_c       11.1712
_cell_angle_alpha    100.271
_cell_angle_beta     100.271
_cell_angle_gamma    90

_space_group_name_H-M_alt    "P 1"
_space_group_IT_number       1

loop_
  _space_group_symop_operation_xyz
  'x, y, z'

loop_
  _atom_site_type_symbol
  _atom_site_label
  _atom_site_symmetry_multiplicity
  _atom_site_fract_x
  _atom_site_fract_y
  _atom_site_fract_z
  _atom_site_occupancy
  Li  Li1       1.0  0.50000  0.00000  0.00000  1.0000
  Li  Li2       1.0  0.00000  0.50000  0.00000  1.0000
  O   O1        1.0  0.00000  0.00000  0.00000  1.0000
  O   O2        1.0  0.59500  0.09480  0.19000  1.0000
  O   O3        1.0  0.09480  0.59500  0.19000  1.0000
  O   O4        1.0  0.90500  0.40500  0.81000  1.0000
  O   O5        1.0  0.40500  0.90500  0.81000  1.0000
  S   S1        1.0  0.20600  0.20600  0.41300  1.0000
  S   S2        1.0  0.79400  0.79400  0.58700  1.0000
  Ti  Ti1       1.0  0.09220  0.09220  0.18400  1.0000
  Ti  Ti2       1.0  0.90800  0.90800  0.81600  1.0000
  Y   Y1        1.0  0.66300  0.66300  0.32600  1.0000
  Y   Y2        1.0  0.33700  0.33700  0.67400  1.0000
