data_image0
_chemical_formula_structural       Cr6Ge6Tb
_chemical_formula_sum              "Cr6 Ge6 Tb1"
_cell_length_a       5.14725
_cell_length_b       5.14725
_cell_length_c       8.35887
_cell_angle_alpha    90
_cell_angle_beta     90
_cell_angle_gamma    119.988

_space_group_name_H-M_alt    "P 1"
_space_group_IT_number       1

loop_
  _space_group_symop_operation_xyz
  'x, y, z'

loop_
  _atom_site_type_symbol
  _atom_site_label
  _atom_site_symmetry_multiplicity
  _atom_site_fract_x
  _atom_site_fract_y
  _atom_site_fract_z
  _atom_site_occupancy
  Cr  Cr1       1.0  0.50000  0.50000  0.25000  1.0000
  Cr  Cr2       1.0  0.50000  0.00000  0.25000  1.0000
  Cr  Cr3       1.0  0.00000  0.50000  0.25000  1.0000
  Cr  Cr4       1.0  0.50000  0.00000  0.75000  1.0000
  Cr  Cr5       1.0  0.00000  0.50000  0.75000  1.0000
  Cr  Cr6       1.0  0.50000  0.50000  0.75000  1.0000
  Ge  Ge1       1.0  0.66700  0.33300  0.00000  1.0000
  Ge  Ge2       1.0  0.33300  0.66700  0.00000  1.0000
  Ge  Ge3       1.0  0.00000  0.00000  0.34700  1.0000
  Ge  Ge4       1.0  0.66700  0.33300  0.50000  1.0000
  Ge  Ge5       1.0  0.33300  0.66700  0.50000  1.0000
  Ge  Ge6       1.0  0.00000  0.00000  0.65300  1.0000
  Tb  Tb1       1.0  0.00000  0.00000  0.00000  1.0000
