data_image0
_chemical_formula_structural       ClLaNb2O7Rb2
_chemical_formula_sum              "Cl1 La1 Nb2 O7 Rb2"
_cell_length_a       3.89556
_cell_length_b       3.89556
_cell_length_c       14.8699
_cell_angle_alpha    90
_cell_angle_beta     90
_cell_angle_gamma    90

_space_group_name_H-M_alt    "P 1"
_space_group_IT_number       1

loop_
  _space_group_symop_operation_xyz
  'x, y, z'

loop_
  _atom_site_type_symbol
  _atom_site_label
  _atom_site_symmetry_multiplicity
  _atom_site_fract_x
  _atom_site_fract_y
  _atom_site_fract_z
  _atom_site_occupancy
  Cl  Cl1       1.0  0.50000  0.50000  0.50000  1.0000
  La  La1       1.0  0.00000  0.00000  0.00000  1.0000
  Nb  Nb1       1.0  0.50000  0.50000  0.15500  1.0000
  Nb  Nb2       1.0  0.50000  0.50000  0.84500  1.0000
  O   O1        1.0  0.50000  0.50000  0.00000  1.0000
  O   O2        1.0  0.50000  0.00000  0.12500  1.0000
  O   O3        1.0  0.00000  0.50000  0.12500  1.0000
  O   O4        1.0  0.50000  0.50000  0.27600  1.0000
  O   O5        1.0  0.50000  0.50000  0.72400  1.0000
  O   O6        1.0  0.50000  0.00000  0.87500  1.0000
  O   O7        1.0  0.00000  0.50000  0.87500  1.0000
  Rb  Rb1       1.0  0.00000  0.00000  0.36700  1.0000
  Rb  Rb2       1.0  0.00000  0.00000  0.63300  1.0000
