data_image0
_chemical_formula_structural       Ba2Cu3O7Tm
_chemical_formula_sum              "Ba2 Cu3 O7 Tm1"
_cell_length_a       3.78647
_cell_length_b       3.87429
_cell_length_c       11.6024
_cell_angle_alpha    90
_cell_angle_beta     90
_cell_angle_gamma    90

_space_group_name_H-M_alt    "P 1"
_space_group_IT_number       1

loop_
  _space_group_symop_operation_xyz
  'x, y, z'

loop_
  _atom_site_type_symbol
  _atom_site_label
  _atom_site_symmetry_multiplicity
  _atom_site_fract_x
  _atom_site_fract_y
  _atom_site_fract_z
  _atom_site_occupancy
  Ba  Ba1       1.0  0.50000  0.50000  0.18300  1.0000
  Ba  Ba2       1.0  0.50000  0.50000  0.81700  1.0000
  Cu  Cu1       1.0  0.00000  0.00000  0.00000  1.0000
  Cu  Cu2       1.0  0.00000  0.00000  0.35500  1.0000
  Cu  Cu3       1.0  0.00000  0.00000  0.64500  1.0000
  O   O1        1.0  0.00000  0.50000  0.00000  1.0000
  O   O2        1.0  0.00000  0.00000  0.16000  1.0000
  O   O3        1.0  0.00000  0.50000  0.38000  1.0000
  O   O4        1.0  0.50000  0.00000  0.38100  1.0000
  O   O5        1.0  0.50000  0.00000  0.61900  1.0000
  O   O6        1.0  0.00000  0.50000  0.62000  1.0000
  O   O7        1.0  0.00000  0.00000  0.84000  1.0000
  Tm  Tm1       1.0  0.50000  0.50000  0.50000  1.0000
