data_image0
_chemical_formula_structural       Al8Au4Nd2Si2
_chemical_formula_sum              "Al8 Au4 Nd2 Si2"
_cell_length_a       6.08772
_cell_length_b       6.08772
_cell_length_c       8.27967
_cell_angle_alpha    90
_cell_angle_beta     90
_cell_angle_gamma    90

_space_group_name_H-M_alt    "P 1"
_space_group_IT_number       1

loop_
  _space_group_symop_operation_xyz
  'x, y, z'

loop_
  _atom_site_type_symbol
  _atom_site_label
  _atom_site_symmetry_multiplicity
  _atom_site_fract_x
  _atom_site_fract_y
  _atom_site_fract_z
  _atom_site_occupancy
  Al  Al1       1.0  0.50100  0.50100  0.17900  1.0000
  Al  Al2       1.0  0.99900  0.50100  0.17900  1.0000
  Al  Al3       1.0  0.50100  0.99900  0.17900  1.0000
  Al  Al4       1.0  0.99900  0.99900  0.17900  1.0000
  Al  Al5       1.0  0.00101  0.00101  0.82100  1.0000
  Al  Al6       1.0  0.49900  0.00101  0.82100  1.0000
  Al  Al7       1.0  0.00101  0.49900  0.82100  1.0000
  Al  Al8       1.0  0.49900  0.49900  0.82100  1.0000
  Au  Au1       1.0  0.75000  0.25000  0.00000  1.0000
  Au  Au2       1.0  0.25000  0.75000  0.00000  1.0000
  Au  Au3       1.0  0.25000  0.25000  0.34900  1.0000
  Au  Au4       1.0  0.75000  0.75000  0.65100  1.0000
  Nd  Nd1       1.0  0.75000  0.25000  0.50000  1.0000
  Nd  Nd2       1.0  0.25000  0.75000  0.50000  1.0000
  Si  Si1       1.0  0.75000  0.75000  0.35300  1.0000
  Si  Si2       1.0  0.25000  0.25000  0.64700  1.0000
