data_image0
_chemical_formula_structural       AuLa4LiO8
_chemical_formula_sum              "Au1 La4 Li1 O8"
_cell_length_a       5.74499
_cell_length_b       5.74596
_cell_length_c       6.82109
_cell_angle_alpha    90
_cell_angle_beta     65.0947
_cell_angle_gamma    90

_space_group_name_H-M_alt    "P 1"
_space_group_IT_number       1

loop_
  _space_group_symop_operation_xyz
  'x, y, z'

loop_
  _atom_site_type_symbol
  _atom_site_label
  _atom_site_symmetry_multiplicity
  _atom_site_fract_x
  _atom_site_fract_y
  _atom_site_fract_z
  _atom_site_occupancy
  Au  Au1       1.0  0.00000  0.50000  0.00000  1.0000
  La  La1       1.0  0.85100  0.00000  0.29900  1.0000
  La  La2       1.0  0.35000  0.50000  0.30000  1.0000
  La  La3       1.0  0.65000  0.50000  0.70000  1.0000
  La  La4       1.0  0.14900  0.00000  0.70100  1.0000
  Li  Li1       1.0  0.50000  0.00000  0.00000  1.0000
  O   O1        1.0  0.25000  0.25000  0.00000  1.0000
  O   O2        1.0  0.75000  0.25000  0.00000  1.0000
  O   O3        1.0  0.25000  0.75000  0.00000  1.0000
  O   O4        1.0  0.75000  0.75000  0.00000  1.0000
  O   O5        1.0  0.00000  0.24900  0.50000  1.0000
  O   O6        1.0  0.50000  0.24900  0.50000  1.0000
  O   O7        1.0  0.00000  0.75100  0.50000  1.0000
  O   O8        1.0  0.50000  0.75100  0.50000  1.0000
