data_image0
_chemical_formula_structural       DyNaO8Pd6
_chemical_formula_sum              "Dy1 Na1 O8 Pd6"
_cell_length_a       5.77625
_cell_length_b       5.77625
_cell_length_c       5.77625
_cell_angle_alpha    90
_cell_angle_beta     90
_cell_angle_gamma    90

_space_group_name_H-M_alt    "P 1"
_space_group_IT_number       1

loop_
  _space_group_symop_operation_xyz
  'x, y, z'

loop_
  _atom_site_type_symbol
  _atom_site_label
  _atom_site_symmetry_multiplicity
  _atom_site_fract_x
  _atom_site_fract_y
  _atom_site_fract_z
  _atom_site_occupancy
  Dy  Dy1       1.0  0.00000  0.00000  0.00000  1.0000
  Na  Na1       1.0  0.50000  0.50000  0.50000  1.0000
  O   O1        1.0  0.24100  0.24100  0.24100  1.0000
  O   O2        1.0  0.75900  0.24100  0.24100  1.0000
  O   O3        1.0  0.24100  0.75900  0.24100  1.0000
  O   O4        1.0  0.75900  0.75900  0.24100  1.0000
  O   O5        1.0  0.24100  0.24100  0.75900  1.0000
  O   O6        1.0  0.75900  0.24100  0.75900  1.0000
  O   O7        1.0  0.24100  0.75900  0.75900  1.0000
  O   O8        1.0  0.75900  0.75900  0.75900  1.0000
  Pd  Pd1       1.0  0.25100  0.50000  0.00000  1.0000
  Pd  Pd2       1.0  0.74900  0.50000  0.00000  1.0000
  Pd  Pd3       1.0  0.50000  0.00000  0.25100  1.0000
  Pd  Pd4       1.0  0.00000  0.25100  0.50000  1.0000
  Pd  Pd5       1.0  0.00000  0.74900  0.50000  1.0000
  Pd  Pd6       1.0  0.50000  0.00000  0.74900  1.0000
