data_image0
_chemical_formula_structural       Ag2Nb6S8
_chemical_formula_sum              "Ag2 Nb6 S8"
_cell_length_a       8.8769
_cell_length_b       8.87965
_cell_length_c       4.35703
_cell_angle_alpha    90
_cell_angle_beta     90
_cell_angle_gamma    119.998

_space_group_name_H-M_alt    "P 1"
_space_group_IT_number       1

loop_
  _space_group_symop_operation_xyz
  'x, y, z'

loop_
  _atom_site_type_symbol
  _atom_site_label
  _atom_site_symmetry_multiplicity
  _atom_site_fract_x
  _atom_site_fract_y
  _atom_site_fract_z
  _atom_site_occupancy
  Ag  Ag1       1.0  0.00000  0.00000  0.00000  1.0000
  Ag  Ag2       1.0  0.00000  0.00000  0.50000  1.0000
  Nb  Nb1       1.0  0.48600  0.13400  0.25000  1.0000
  Nb  Nb2       1.0  0.86600  0.35200  0.25000  1.0000
  Nb  Nb3       1.0  0.64800  0.51400  0.25000  1.0000
  Nb  Nb4       1.0  0.35200  0.48600  0.75000  1.0000
  Nb  Nb5       1.0  0.13400  0.64800  0.75000  1.0000
  Nb  Nb6       1.0  0.51400  0.86600  0.75000  1.0000
  S   S1        1.0  0.69100  0.02000  0.25000  1.0000
  S   S2        1.0  0.32900  0.30900  0.25000  1.0000
  S   S3        1.0  0.33300  0.66700  0.25000  1.0000
  S   S4        1.0  0.98000  0.67100  0.25000  1.0000
  S   S5        1.0  0.02000  0.32900  0.75000  1.0000
  S   S6        1.0  0.66700  0.33300  0.75000  1.0000
  S   S7        1.0  0.67100  0.69100  0.75000  1.0000
  S   S8        1.0  0.30900  0.98000  0.75000  1.0000
