data_image0
_chemical_formula_structural       O4RuSr2
_chemical_formula_sum              "O4 Ru1 Sr2"
_cell_length_a       3.86713
_cell_length_b       3.86713
_cell_length_c       6.93677
_cell_angle_alpha    106.185
_cell_angle_beta     106.185
_cell_angle_gamma    90

_space_group_name_H-M_alt    "P 1"
_space_group_IT_number       1

loop_
  _space_group_symop_operation_xyz
  'x, y, z'

loop_
  _atom_site_type_symbol
  _atom_site_label
  _atom_site_symmetry_multiplicity
  _atom_site_fract_x
  _atom_site_fract_y
  _atom_site_fract_z
  _atom_site_occupancy
  O   O1        1.0  0.50000  0.00000  0.00000  1.0000
  O   O2        1.0  0.00000  0.50000  0.00000  1.0000
  O   O3        1.0  0.16400  0.16400  0.32800  1.0000
  O   O4        1.0  0.83600  0.83600  0.67200  1.0000
  Ru  Ru1       1.0  0.00000  0.00000  0.00000  1.0000
  Sr  Sr1       1.0  0.64700  0.64700  0.29500  1.0000
  Sr  Sr2       1.0  0.35300  0.35300  0.70500  1.0000
