data_image0
_chemical_formula_structural       Sb12Sm4V4
_chemical_formula_sum              "Sb12 Sm4 V4"
_cell_length_a       12.9941
_cell_length_b       6.30266
_cell_length_c       5.98032
_cell_angle_alpha    90
_cell_angle_beta     90
_cell_angle_gamma    90

_space_group_name_H-M_alt    "P 1"
_space_group_IT_number       1

loop_
  _space_group_symop_operation_xyz
  'x, y, z'

loop_
  _atom_site_type_symbol
  _atom_site_label
  _atom_site_symmetry_multiplicity
  _atom_site_fract_x
  _atom_site_fract_y
  _atom_site_fract_z
  _atom_site_occupancy
  Sb  Sb1       1.0  0.50100  0.25000  0.00000  1.0000
  Sb  Sb2       1.0  0.49900  0.75000  0.00000  1.0000
  Sb  Sb3       1.0  0.06550  0.10400  0.25000  1.0000
  Sb  Sb4       1.0  0.22200  0.49700  0.25000  1.0000
  Sb  Sb5       1.0  0.93400  0.60400  0.25000  1.0000
  Sb  Sb6       1.0  0.77800  0.99700  0.25000  1.0000
  Sb  Sb7       1.0  0.50100  0.25000  0.50000  1.0000
  Sb  Sb8       1.0  0.49900  0.75000  0.50000  1.0000
  Sb  Sb9       1.0  0.22200  0.00277  0.75000  1.0000
  Sb  Sb10      1.0  0.06550  0.39600  0.75000  1.0000
  Sb  Sb11      1.0  0.77800  0.50300  0.75000  1.0000
  Sb  Sb12      1.0  0.93400  0.89600  0.75000  1.0000
  Sm  Sm1       1.0  0.31100  0.00272  0.25000  1.0000
  Sm  Sm2       1.0  0.68900  0.50300  0.25000  1.0000
  Sm  Sm3       1.0  0.31100  0.49700  0.75000  1.0000
  Sm  Sm4       1.0  0.68900  0.99700  0.75000  1.0000
  V   V1        1.0  0.90400  0.25000  0.00000  1.0000
  V   V2        1.0  0.09640  0.75000  0.00000  1.0000
  V   V3        1.0  0.90400  0.25000  0.50000  1.0000
  V   V4        1.0  0.09640  0.75000  0.50000  1.0000
