data_image0
_chemical_formula_structural       O8Sr2Th4
_chemical_formula_sum              "O8 Sr2 Th4"
_cell_length_a       7.3187
_cell_length_b       7.3187
_cell_length_c       7.3187
_cell_angle_alpha    119.991
_cell_angle_beta     90.0158
_cell_angle_gamma    119.991

_space_group_name_H-M_alt    "P 1"
_space_group_IT_number       1

loop_
  _space_group_symop_operation_xyz
  'x, y, z'

loop_
  _atom_site_type_symbol
  _atom_site_label
  _atom_site_symmetry_multiplicity
  _atom_site_fract_x
  _atom_site_fract_y
  _atom_site_fract_z
  _atom_site_occupancy
  O   O1        1.0  0.17400  0.78300  0.39100  1.0000
  O   O2        1.0  0.60900  0.21700  0.39100  1.0000
  O   O3        1.0  0.60900  0.78300  0.39100  1.0000
  O   O4        1.0  0.14100  0.28300  0.42400  1.0000
  O   O5        1.0  0.60900  0.21700  0.82600  1.0000
  O   O6        1.0  0.14100  0.71700  0.85900  1.0000
  O   O7        1.0  0.14100  0.28300  0.85900  1.0000
  O   O8        1.0  0.57600  0.71700  0.85900  1.0000
  Sr  Sr1       1.0  0.00000  0.00000  0.00000  1.0000
  Sr  Sr2       1.0  0.75000  0.50000  0.25000  1.0000
  Th  Th1       1.0  0.37500  0.75000  0.12500  1.0000
  Th  Th2       1.0  0.37500  0.25000  0.62500  1.0000
  Th  Th3       1.0  0.37500  0.75000  0.62500  1.0000
  Th  Th4       1.0  0.87500  0.25000  0.62500  1.0000
