data_image0
_chemical_formula_structural       Be2K4O8
_chemical_formula_sum              "Be2 K4 O8"
_cell_length_a       6.68961
_cell_length_b       6.68961
_cell_length_c       6.68961
_cell_angle_alpha    119.988
_cell_angle_beta     90.0214
_cell_angle_gamma    119.988

_space_group_name_H-M_alt    "P 1"
_space_group_IT_number       1

loop_
  _space_group_symop_operation_xyz
  'x, y, z'

loop_
  _atom_site_type_symbol
  _atom_site_label
  _atom_site_symmetry_multiplicity
  _atom_site_fract_x
  _atom_site_fract_y
  _atom_site_fract_z
  _atom_site_occupancy
  Be  Be1       1.0  0.00000  0.00000  0.00000  1.0000
  Be  Be2       1.0  0.75000  0.50000  0.25000  1.0000
  K   K1        1.0  0.37500  0.75000  0.12500  1.0000
  K   K2        1.0  0.87500  0.25000  0.62500  1.0000
  K   K3        1.0  0.37500  0.25000  0.62500  1.0000
  K   K4        1.0  0.37500  0.75000  0.62500  1.0000
  O   O1        1.0  0.09600  0.19200  0.28800  1.0000
  O   O2        1.0  0.65400  0.30800  0.34600  1.0000
  O   O3        1.0  0.03810  0.69200  0.34600  1.0000
  O   O4        1.0  0.65400  0.69200  0.34600  1.0000
  O   O5        1.0  0.09600  0.80800  0.90400  1.0000
  O   O6        1.0  0.09610  0.19200  0.90400  1.0000
  O   O7        1.0  0.71200  0.80800  0.90400  1.0000
  O   O8        1.0  0.65400  0.30800  0.96200  1.0000
