data_image0
_chemical_formula_structural       B16Gd4Mn4
_chemical_formula_sum              "B16 Gd4 Mn4"
_cell_length_a       5.93115
_cell_length_b       11.4706
_cell_length_c       3.43307
_cell_angle_alpha    90
_cell_angle_beta     90
_cell_angle_gamma    90

_space_group_name_H-M_alt    "P 1"
_space_group_IT_number       1

loop_
  _space_group_symop_operation_xyz
  'x, y, z'

loop_
  _atom_site_type_symbol
  _atom_site_label
  _atom_site_symmetry_multiplicity
  _atom_site_fract_x
  _atom_site_fract_y
  _atom_site_fract_z
  _atom_site_occupancy
  B   B1        1.0  0.86100  0.03240  0.50000  1.0000
  B   B2        1.0  0.38800  0.04590  0.50000  1.0000
  B   B3        1.0  0.78000  0.18300  0.50000  1.0000
  B   B4        1.0  0.47500  0.19000  0.50000  1.0000
  B   B5        1.0  0.97500  0.31000  0.50000  1.0000
  B   B6        1.0  0.28000  0.31700  0.50000  1.0000
  B   B7        1.0  0.88800  0.45400  0.50000  1.0000
  B   B8        1.0  0.36100  0.46800  0.50000  1.0000
  B   B9        1.0  0.63900  0.53200  0.50000  1.0000
  B   B10       1.0  0.11200  0.54600  0.50000  1.0000
  B   B11       1.0  0.72000  0.68300  0.50000  1.0000
  B   B12       1.0  0.02470  0.69000  0.50000  1.0000
  B   B13       1.0  0.52500  0.81000  0.50000  1.0000
  B   B14       1.0  0.22000  0.81700  0.50000  1.0000
  B   B15       1.0  0.61200  0.95400  0.50000  1.0000
  B   B16       1.0  0.13900  0.96800  0.50000  1.0000
  Gd  Gd1       1.0  0.12600  0.15000  0.00000  1.0000
  Gd  Gd2       1.0  0.62600  0.35000  0.00000  1.0000
  Gd  Gd3       1.0  0.37400  0.65000  0.00000  1.0000
  Gd  Gd4       1.0  0.87400  0.85000  0.00000  1.0000
  Mn  Mn1       1.0  0.62700  0.08340  0.00000  1.0000
  Mn  Mn2       1.0  0.12700  0.41700  0.00000  1.0000
  Mn  Mn3       1.0  0.87300  0.58300  0.00000  1.0000
  Mn  Mn4       1.0  0.37300  0.91700  0.00000  1.0000
