data_image0
_chemical_formula_structural       Be4Ge2O14Y4
_chemical_formula_sum              "Be4 Ge2 O14 Y4"
_cell_length_a       7.39034
_cell_length_b       7.39034
_cell_length_c       4.78489
_cell_angle_alpha    90
_cell_angle_beta     90
_cell_angle_gamma    90

_space_group_name_H-M_alt    "P 1"
_space_group_IT_number       1

loop_
  _space_group_symop_operation_xyz
  'x, y, z'

loop_
  _atom_site_type_symbol
  _atom_site_label
  _atom_site_symmetry_multiplicity
  _atom_site_fract_x
  _atom_site_fract_y
  _atom_site_fract_z
  _atom_site_occupancy
  Be  Be1       1.0  0.36400  0.13600  0.04830  1.0000
  Be  Be2       1.0  0.63600  0.86400  0.04830  1.0000
  Be  Be3       1.0  0.86400  0.36400  0.95200  1.0000
  Be  Be4       1.0  0.13600  0.63600  0.95200  1.0000
  Ge  Ge1       1.0  0.00000  0.00000  0.00000  1.0000
  Ge  Ge2       1.0  0.50000  0.50000  0.00000  1.0000
  O   O1        1.0  0.50000  0.00000  0.18500  1.0000
  O   O2        1.0  0.17200  0.08160  0.21800  1.0000
  O   O3        1.0  0.41800  0.32800  0.21800  1.0000
  O   O4        1.0  0.58200  0.67200  0.21800  1.0000
  O   O5        1.0  0.82800  0.91800  0.21800  1.0000
  O   O6        1.0  0.85800  0.35800  0.28200  1.0000
  O   O7        1.0  0.14200  0.64200  0.28200  1.0000
  O   O8        1.0  0.35800  0.14200  0.71800  1.0000
  O   O9        1.0  0.64200  0.85800  0.71800  1.0000
  O   O10       1.0  0.91800  0.17200  0.78200  1.0000
  O   O11       1.0  0.67200  0.41800  0.78200  1.0000
  O   O12       1.0  0.32800  0.58200  0.78200  1.0000
  O   O13       1.0  0.08160  0.82800  0.78200  1.0000
  O   O14       1.0  0.00000  0.50000  0.81500  1.0000
  Y   Y1        1.0  0.15800  0.34200  0.49400  1.0000
  Y   Y2        1.0  0.84200  0.65800  0.49400  1.0000
  Y   Y3        1.0  0.65800  0.15800  0.50600  1.0000
  Y   Y4        1.0  0.34200  0.84200  0.50600  1.0000
