data_image0
_chemical_formula_structural       Ir2K4O8
_chemical_formula_sum              "Ir2 K4 O8"
_cell_length_a       7.03464
_cell_length_b       7.03464
_cell_length_c       7.03464
_cell_angle_alpha    119.973
_cell_angle_beta     90.047
_cell_angle_gamma    119.973

_space_group_name_H-M_alt    "P 1"
_space_group_IT_number       1

loop_
  _space_group_symop_operation_xyz
  'x, y, z'

loop_
  _atom_site_type_symbol
  _atom_site_label
  _atom_site_symmetry_multiplicity
  _atom_site_fract_x
  _atom_site_fract_y
  _atom_site_fract_z
  _atom_site_occupancy
  Ir  Ir1       1.0  0.00000  0.00000  0.00000  1.0000
  Ir  Ir2       1.0  0.75000  0.50000  0.25000  1.0000
  K   K1        1.0  0.37500  0.75000  0.12500  1.0000
  K   K2        1.0  0.37500  0.75000  0.62500  1.0000
  K   K3        1.0  0.37500  0.25000  0.62500  1.0000
  K   K4        1.0  0.87500  0.25000  0.62500  1.0000
  O   O1        1.0  0.10600  0.21300  0.31900  1.0000
  O   O2        1.0  0.06910  0.71300  0.35600  1.0000
  O   O3        1.0  0.64300  0.28700  0.35600  1.0000
  O   O4        1.0  0.64400  0.71300  0.35700  1.0000
  O   O5        1.0  0.10600  0.78700  0.89300  1.0000
  O   O6        1.0  0.10700  0.21300  0.89400  1.0000
  O   O7        1.0  0.68100  0.78700  0.89400  1.0000
  O   O8        1.0  0.64400  0.28700  0.93100  1.0000
