data_image0
_chemical_formula_structural       B16Ni4Sc4
_chemical_formula_sum              "B16 Ni4 Sc4"
_cell_length_a       5.78329
_cell_length_b       11.2135
_cell_length_c       3.25168
_cell_angle_alpha    90
_cell_angle_beta     90
_cell_angle_gamma    90

_space_group_name_H-M_alt    "P 1"
_space_group_IT_number       1

loop_
  _space_group_symop_operation_xyz
  'x, y, z'

loop_
  _atom_site_type_symbol
  _atom_site_label
  _atom_site_symmetry_multiplicity
  _atom_site_fract_x
  _atom_site_fract_y
  _atom_site_fract_z
  _atom_site_occupancy
  B   B1        1.0  0.86600  0.03240  0.50000  1.0000
  B   B2        1.0  0.38400  0.04910  0.50000  1.0000
  B   B3        1.0  0.79000  0.18700  0.50000  1.0000
  B   B4        1.0  0.48000  0.19400  0.50000  1.0000
  B   B5        1.0  0.98000  0.30600  0.50000  1.0000
  B   B6        1.0  0.29000  0.31300  0.50000  1.0000
  B   B7        1.0  0.88400  0.45100  0.50000  1.0000
  B   B8        1.0  0.36600  0.46800  0.50000  1.0000
  B   B9        1.0  0.63400  0.53200  0.50000  1.0000
  B   B10       1.0  0.11600  0.54900  0.50000  1.0000
  B   B11       1.0  0.71000  0.68700  0.50000  1.0000
  B   B12       1.0  0.02040  0.69400  0.50000  1.0000
  B   B13       1.0  0.52000  0.80600  0.50000  1.0000
  B   B14       1.0  0.21000  0.81300  0.50000  1.0000
  B   B15       1.0  0.61600  0.95100  0.50000  1.0000
  B   B16       1.0  0.13400  0.96800  0.50000  1.0000
  Ni  Ni1       1.0  0.63500  0.08860  0.00000  1.0000
  Ni  Ni2       1.0  0.13500  0.41100  0.00000  1.0000
  Ni  Ni3       1.0  0.86500  0.58900  0.00000  1.0000
  Ni  Ni4       1.0  0.36500  0.91100  0.00000  1.0000
  Sc  Sc1       1.0  0.12700  0.15100  0.00000  1.0000
  Sc  Sc2       1.0  0.62700  0.34900  0.00000  1.0000
  Sc  Sc3       1.0  0.37300  0.65100  0.00000  1.0000
  Sc  Sc4       1.0  0.87300  0.84900  0.00000  1.0000
