data_image0
_chemical_formula_structural       Er2Lu4O8
_chemical_formula_sum              "Er2 Lu4 O8"
_cell_length_a       6.59155
_cell_length_b       6.59155
_cell_length_c       6.59155
_cell_angle_alpha    119.592
_cell_angle_beta     90.7082
_cell_angle_gamma    119.592

_space_group_name_H-M_alt    "P 1"
_space_group_IT_number       1

loop_
  _space_group_symop_operation_xyz
  'x, y, z'

loop_
  _atom_site_type_symbol
  _atom_site_label
  _atom_site_symmetry_multiplicity
  _atom_site_fract_x
  _atom_site_fract_y
  _atom_site_fract_z
  _atom_site_occupancy
  Er  Er1       1.0  0.00000  0.00000  0.00000  1.0000
  Er  Er2       1.0  0.75000  0.50000  0.25000  1.0000
  Lu  Lu1       1.0  0.37500  0.75000  0.12500  1.0000
  Lu  Lu2       1.0  0.37500  0.25000  0.62500  1.0000
  Lu  Lu3       1.0  0.37500  0.75000  0.62500  1.0000
  Lu  Lu4       1.0  0.87500  0.25000  0.62500  1.0000
  O   O1        1.0  0.15600  0.77300  0.38300  1.0000
  O   O2        1.0  0.61100  0.22700  0.38300  1.0000
  O   O3        1.0  0.61700  0.77300  0.38900  1.0000
  O   O4        1.0  0.13300  0.27300  0.40600  1.0000
  O   O5        1.0  0.61700  0.22700  0.84400  1.0000
  O   O6        1.0  0.13300  0.72700  0.86100  1.0000
  O   O7        1.0  0.59400  0.72700  0.86700  1.0000
  O   O8        1.0  0.13900  0.27300  0.86700  1.0000
