data_image0
_chemical_formula_structural       Ag2Li4O6
_chemical_formula_sum              "Ag2 Li4 O6"
_cell_length_a       5.22833
_cell_length_b       5.22833
_cell_length_c       5.12167
_cell_angle_alpha    99.5693
_cell_angle_beta     99.5693
_cell_angle_gamma    120.254

_space_group_name_H-M_alt    "P 1"
_space_group_IT_number       1

loop_
  _space_group_symop_operation_xyz
  'x, y, z'

loop_
  _atom_site_type_symbol
  _atom_site_label
  _atom_site_symmetry_multiplicity
  _atom_site_fract_x
  _atom_site_fract_y
  _atom_site_fract_z
  _atom_site_occupancy
  Ag  Ag1       1.0  0.83500  0.16500  0.00000  1.0000
  Ag  Ag2       1.0  0.16500  0.83500  0.00000  1.0000
  Li  Li1       1.0  0.50000  0.50000  0.00000  1.0000
  Li  Li2       1.0  0.00000  0.00000  0.50000  1.0000
  Li  Li3       1.0  0.66700  0.33300  0.50000  1.0000
  Li  Li4       1.0  0.33300  0.66700  0.50000  1.0000
  O   O1        1.0  0.92800  0.59000  0.24600  1.0000
  O   O2        1.0  0.59000  0.92800  0.24600  1.0000
  O   O3        1.0  0.24800  0.24800  0.25900  1.0000
  O   O4        1.0  0.75200  0.75200  0.74100  1.0000
  O   O5        1.0  0.41000  0.07150  0.75400  1.0000
  O   O6        1.0  0.07150  0.41000  0.75400  1.0000
