data_image0
_chemical_formula_structural       Fe2Li4O6
_chemical_formula_sum              "Fe2 Li4 O6"
_cell_length_a       4.99192
_cell_length_b       4.99192
_cell_length_c       4.98101
_cell_angle_alpha    98.9771
_cell_angle_beta     98.9771
_cell_angle_gamma    120.987

_space_group_name_H-M_alt    "P 1"
_space_group_IT_number       1

loop_
  _space_group_symop_operation_xyz
  'x, y, z'

loop_
  _atom_site_type_symbol
  _atom_site_label
  _atom_site_symmetry_multiplicity
  _atom_site_fract_x
  _atom_site_fract_y
  _atom_site_fract_z
  _atom_site_occupancy
  Fe  Fe1       1.0  0.83600  0.16400  0.00000  1.0000
  Fe  Fe2       1.0  0.16400  0.83600  0.00000  1.0000
  Li  Li1       1.0  0.50000  0.50000  0.00000  1.0000
  Li  Li2       1.0  0.00000  0.00000  0.50000  1.0000
  Li  Li3       1.0  0.65800  0.34200  0.50000  1.0000
  Li  Li4       1.0  0.34200  0.65800  0.50000  1.0000
  O   O1        1.0  0.94000  0.59000  0.22900  1.0000
  O   O2        1.0  0.59000  0.94000  0.22900  1.0000
  O   O3        1.0  0.23200  0.23200  0.23800  1.0000
  O   O4        1.0  0.76800  0.76800  0.76200  1.0000
  O   O5        1.0  0.41000  0.05980  0.77100  1.0000
  O   O6        1.0  0.05980  0.41000  0.77100  1.0000
