data_image0
_chemical_formula_structural       Li4O6Y2
_chemical_formula_sum              "Li4 O6 Y2"
_cell_length_a       5.69789
_cell_length_b       5.69789
_cell_length_c       5.01201
_cell_angle_alpha    99.1162
_cell_angle_beta     99.1162
_cell_angle_gamma    121.636

_space_group_name_H-M_alt    "P 1"
_space_group_IT_number       1

loop_
  _space_group_symop_operation_xyz
  'x, y, z'

loop_
  _atom_site_type_symbol
  _atom_site_label
  _atom_site_symmetry_multiplicity
  _atom_site_fract_x
  _atom_site_fract_y
  _atom_site_fract_z
  _atom_site_occupancy
  Li  Li1       1.0  0.50000  0.50000  0.00000  1.0000
  Li  Li2       1.0  0.62800  0.37200  0.50000  1.0000
  Li  Li3       1.0  0.37200  0.62800  0.50000  1.0000
  Li  Li4       1.0  0.00000  0.00000  0.50000  1.0000
  O   O1        1.0  0.24700  0.24700  0.24100  1.0000
  O   O2        1.0  0.89800  0.57300  0.25900  1.0000
  O   O3        1.0  0.57300  0.89800  0.25900  1.0000
  O   O4        1.0  0.42700  0.10200  0.74100  1.0000
  O   O5        1.0  0.10200  0.42700  0.74100  1.0000
  O   O6        1.0  0.75300  0.75300  0.75900  1.0000
  Y   Y1        1.0  0.83400  0.16600  0.00000  1.0000
  Y   Y2        1.0  0.16600  0.83400  0.00000  1.0000
