data_image0
_chemical_formula_structural       Cs2Li4O6
_chemical_formula_sum              "Cs2 Li4 O6"
_cell_length_a       6.10483
_cell_length_b       6.10483
_cell_length_c       6.30893
_cell_angle_alpha    103.625
_cell_angle_beta     103.625
_cell_angle_gamma    126.509

_space_group_name_H-M_alt    "P 1"
_space_group_IT_number       1

loop_
  _space_group_symop_operation_xyz
  'x, y, z'

loop_
  _atom_site_type_symbol
  _atom_site_label
  _atom_site_symmetry_multiplicity
  _atom_site_fract_x
  _atom_site_fract_y
  _atom_site_fract_z
  _atom_site_occupancy
  Cs  Cs1       1.0  0.84400  0.15600  0.00000  1.0000
  Cs  Cs2       1.0  0.15600  0.84400  0.00000  1.0000
  Li  Li1       1.0  0.50000  0.50000  0.00000  1.0000
  Li  Li2       1.0  0.00000  0.00000  0.50000  1.0000
  Li  Li3       1.0  0.75500  0.24500  0.50000  1.0000
  Li  Li4       1.0  0.24500  0.75500  0.50000  1.0000
  O   O1        1.0  0.81100  0.53700  0.29400  1.0000
  O   O2        1.0  0.53700  0.81100  0.29400  1.0000
  O   O3        1.0  0.38200  0.38200  0.49300  1.0000
  O   O4        1.0  0.61800  0.61800  0.50700  1.0000
  O   O5        1.0  0.46300  0.18900  0.70600  1.0000
  O   O6        1.0  0.18900  0.46300  0.70600  1.0000
