data_image0
_chemical_formula_structural       Li4O6SmTa
_chemical_formula_sum              "Li4 O6 Sm1 Ta1"
_cell_length_a       5.52502
_cell_length_b       5.52502
_cell_length_c       5.20769
_cell_angle_alpha    99.487
_cell_angle_beta     99.487
_cell_angle_gamma    120.598

_space_group_name_H-M_alt    "P 1"
_space_group_IT_number       1

loop_
  _space_group_symop_operation_xyz
  'x, y, z'

loop_
  _atom_site_type_symbol
  _atom_site_label
  _atom_site_symmetry_multiplicity
  _atom_site_fract_x
  _atom_site_fract_y
  _atom_site_fract_z
  _atom_site_occupancy
  Li  Li1       1.0  0.50200  0.49800  0.00000  1.0000
  Li  Li2       1.0  0.64100  0.35900  0.50000  1.0000
  Li  Li3       1.0  0.33500  0.66500  0.50000  1.0000
  Li  Li4       1.0  0.02930  0.97100  0.50000  1.0000
  O   O1        1.0  0.93300  0.61000  0.23100  1.0000
  O   O2        1.0  0.53200  0.90100  0.23900  1.0000
  O   O3        1.0  0.24800  0.21100  0.24100  1.0000
  O   O4        1.0  0.78900  0.75200  0.75900  1.0000
  O   O5        1.0  0.09910  0.46800  0.76100  1.0000
  O   O6        1.0  0.39000  0.06730  0.76900  1.0000
  Sm  Sm1       1.0  0.83500  0.16500  0.00000  1.0000
  Ta  Ta1       1.0  0.16800  0.83200  0.00000  1.0000
