data_image0
_chemical_formula_structural       Li4O6OsTb
_chemical_formula_sum              "Li4 O6 Os1 Tb1"
_cell_length_a       5.36558
_cell_length_b       5.36558
_cell_length_c       5.21853
_cell_angle_alpha    99.4702
_cell_angle_beta     99.4702
_cell_angle_gamma    120.337

_space_group_name_H-M_alt    "P 1"
_space_group_IT_number       1

loop_
  _space_group_symop_operation_xyz
  'x, y, z'

loop_
  _atom_site_type_symbol
  _atom_site_label
  _atom_site_symmetry_multiplicity
  _atom_site_fract_x
  _atom_site_fract_y
  _atom_site_fract_z
  _atom_site_occupancy
  Li  Li1       1.0  0.50000  0.50000  0.00000  1.0000
  Li  Li2       1.0  0.02430  0.97600  0.50000  1.0000
  Li  Li3       1.0  0.64900  0.35100  0.50000  1.0000
  Li  Li4       1.0  0.33300  0.66700  0.50000  1.0000
  O   O1        1.0  0.93200  0.61000  0.23500  1.0000
  O   O2        1.0  0.53900  0.90300  0.24200  1.0000
  O   O3        1.0  0.25300  0.21900  0.24300  1.0000
  O   O4        1.0  0.78100  0.74700  0.75700  1.0000
  O   O5        1.0  0.09710  0.46100  0.75800  1.0000
  O   O6        1.0  0.39000  0.06760  0.76500  1.0000
  Os  Os1       1.0  0.16700  0.83300  0.00000  1.0000
  Tb  Tb1       1.0  0.83500  0.16500  0.00000  1.0000
