data_image0
_chemical_formula_structural       HoLi4O6Pa
_chemical_formula_sum              "Ho1 Li4 O6 Pa1"
_cell_length_a       5.62475
_cell_length_b       5.62475
_cell_length_c       5.29399
_cell_angle_alpha    99.9027
_cell_angle_beta     99.9027
_cell_angle_gamma    120.111

_space_group_name_H-M_alt    "P 1"
_space_group_IT_number       1

loop_
  _space_group_symop_operation_xyz
  'x, y, z'

loop_
  _atom_site_type_symbol
  _atom_site_label
  _atom_site_symmetry_multiplicity
  _atom_site_fract_x
  _atom_site_fract_y
  _atom_site_fract_z
  _atom_site_occupancy
  Ho  Ho1       1.0  0.83300  0.16700  0.00000  1.0000
  Li  Li1       1.0  0.50100  0.49900  0.00000  1.0000
  Li  Li2       1.0  0.99000  0.00958  0.50000  1.0000
  Li  Li3       1.0  0.64500  0.35500  0.50000  1.0000
  Li  Li4       1.0  0.36500  0.63500  0.50000  1.0000
  O   O1        1.0  0.91700  0.58400  0.23600  1.0000
  O   O2        1.0  0.57600  0.91500  0.24400  1.0000
  O   O3        1.0  0.24300  0.23800  0.25000  1.0000
  O   O4        1.0  0.76200  0.75700  0.75000  1.0000
  O   O5        1.0  0.08540  0.42400  0.75600  1.0000
  O   O6        1.0  0.41600  0.08340  0.76400  1.0000
  Pa  Pa1       1.0  0.16800  0.83200  0.00000  1.0000
