data_image0
_chemical_formula_structural       CrLi4O6Ta
_chemical_formula_sum              "Cr1 Li4 O6 Ta1"
_cell_length_a       5.09791
_cell_length_b       5.09791
_cell_length_c       5.09724
_cell_angle_alpha    99.6467
_cell_angle_beta     99.6467
_cell_angle_gamma    119.942

_space_group_name_H-M_alt    "P 1"
_space_group_IT_number       1

loop_
  _space_group_symop_operation_xyz
  'x, y, z'

loop_
  _atom_site_type_symbol
  _atom_site_label
  _atom_site_symmetry_multiplicity
  _atom_site_fract_x
  _atom_site_fract_y
  _atom_site_fract_z
  _atom_site_occupancy
  Cr  Cr1       1.0  0.83300  0.16700  0.00000  1.0000
  Li  Li1       1.0  0.50100  0.49900  0.00000  1.0000
  Li  Li2       1.0  0.99100  0.00886  0.50000  1.0000
  Li  Li3       1.0  0.66100  0.33900  0.50000  1.0000
  Li  Li4       1.0  0.34600  0.65400  0.50000  1.0000
  O   O1        1.0  0.92900  0.58100  0.23300  1.0000
  O   O2        1.0  0.57600  0.92600  0.23400  1.0000
  O   O3        1.0  0.23100  0.22800  0.23700  1.0000
  O   O4        1.0  0.77200  0.76900  0.76300  1.0000
  O   O5        1.0  0.07370  0.42400  0.76600  1.0000
  O   O6        1.0  0.41900  0.07110  0.76700  1.0000
  Ta  Ta1       1.0  0.16700  0.83300  0.00000  1.0000
