data_image0
_chemical_formula_structural       Li4NiO6Ti
_chemical_formula_sum              "Li4 Ni1 O6 Ti1"
_cell_length_a       4.94779
_cell_length_b       4.94779
_cell_length_c       5.02246
_cell_angle_alpha    99.5801
_cell_angle_beta     99.5801
_cell_angle_gamma    119.911

_space_group_name_H-M_alt    "P 1"
_space_group_IT_number       1

loop_
  _space_group_symop_operation_xyz
  'x, y, z'

loop_
  _atom_site_type_symbol
  _atom_site_label
  _atom_site_symmetry_multiplicity
  _atom_site_fract_x
  _atom_site_fract_y
  _atom_site_fract_z
  _atom_site_occupancy
  Li  Li1       1.0  0.50000  0.50000  0.00000  1.0000
  Li  Li2       1.0  0.98800  0.01200  0.50000  1.0000
  Li  Li3       1.0  0.66500  0.33500  0.50000  1.0000
  Li  Li4       1.0  0.34300  0.65700  0.50000  1.0000
  Ni  Ni1       1.0  0.83300  0.16700  0.00000  1.0000
  O   O1        1.0  0.58900  0.93800  0.22400  1.0000
  O   O2        1.0  0.92700  0.56400  0.22900  1.0000
  O   O3        1.0  0.21500  0.22700  0.23100  1.0000
  O   O4        1.0  0.77300  0.78500  0.76900  1.0000
  O   O5        1.0  0.43600  0.07260  0.77100  1.0000
  O   O6        1.0  0.06180  0.41100  0.77600  1.0000
  Ti  Ti1       1.0  0.16700  0.83300  0.00000  1.0000
