data_image0
_chemical_formula_structural       CrLi4O6Tc
_chemical_formula_sum              "Cr1 Li4 O6 Tc1"
_cell_length_a       5.06014
_cell_length_b       5.06014
_cell_length_c       5.04841
_cell_angle_alpha    99.7474
_cell_angle_beta     99.7474
_cell_angle_gamma    119.931

_space_group_name_H-M_alt    "P 1"
_space_group_IT_number       1

loop_
  _space_group_symop_operation_xyz
  'x, y, z'

loop_
  _atom_site_type_symbol
  _atom_site_label
  _atom_site_symmetry_multiplicity
  _atom_site_fract_x
  _atom_site_fract_y
  _atom_site_fract_z
  _atom_site_occupancy
  Cr  Cr1       1.0  0.83300  0.16700  0.00000  1.0000
  Li  Li1       1.0  0.50000  0.50000  0.00000  1.0000
  Li  Li2       1.0  0.99900  0.00128  0.50000  1.0000
  Li  Li3       1.0  0.66000  0.34000  0.50000  1.0000
  Li  Li4       1.0  0.34100  0.65900  0.50000  1.0000
  O   O1        1.0  0.92900  0.58300  0.23400  1.0000
  O   O2        1.0  0.57600  0.92600  0.23500  1.0000
  O   O3        1.0  0.23300  0.23000  0.23700  1.0000
  O   O4        1.0  0.77000  0.76700  0.76300  1.0000
  O   O5        1.0  0.07420  0.42400  0.76500  1.0000
  O   O6        1.0  0.41700  0.07100  0.76600  1.0000
  Tc  Tc1       1.0  0.16700  0.83300  0.00000  1.0000
