data_image0
_chemical_formula_structural       CrLi4O6V
_chemical_formula_sum              "Cr1 Li4 O6 V1"
_cell_length_a       4.98392
_cell_length_b       4.98392
_cell_length_c       5.01011
_cell_angle_alpha    99.6725
_cell_angle_beta     99.6725
_cell_angle_gamma    119.942

_space_group_name_H-M_alt    "P 1"
_space_group_IT_number       1

loop_
  _space_group_symop_operation_xyz
  'x, y, z'

loop_
  _atom_site_type_symbol
  _atom_site_label
  _atom_site_symmetry_multiplicity
  _atom_site_fract_x
  _atom_site_fract_y
  _atom_site_fract_z
  _atom_site_occupancy
  Cr  Cr1       1.0  0.16700  0.83300  0.00000  1.0000
  Li  Li1       1.0  0.50000  0.50000  0.00000  1.0000
  Li  Li2       1.0  0.99900  0.00070  0.50000  1.0000
  Li  Li3       1.0  0.66000  0.34000  0.50000  1.0000
  Li  Li4       1.0  0.34000  0.66000  0.50000  1.0000
  O   O1        1.0  0.59200  0.93700  0.22800  1.0000
  O   O2        1.0  0.92300  0.56300  0.23100  1.0000
  O   O3        1.0  0.21800  0.23200  0.23200  1.0000
  O   O4        1.0  0.76800  0.78200  0.76800  1.0000
  O   O5        1.0  0.43700  0.07690  0.76900  1.0000
  O   O6        1.0  0.06270  0.40800  0.77200  1.0000
  V   V1        1.0  0.83200  0.16800  0.00000  1.0000
