data_image0
_chemical_formula_structural       FeLi4NiO6
_chemical_formula_sum              "Fe1 Li4 Ni1 O6"
_cell_length_a       4.92228
_cell_length_b       4.92228
_cell_length_c       4.94241
_cell_angle_alpha    99.1337
_cell_angle_beta     99.1337
_cell_angle_gamma    120.574

_space_group_name_H-M_alt    "P 1"
_space_group_IT_number       1

loop_
  _space_group_symop_operation_xyz
  'x, y, z'

loop_
  _atom_site_type_symbol
  _atom_site_label
  _atom_site_symmetry_multiplicity
  _atom_site_fract_x
  _atom_site_fract_y
  _atom_site_fract_z
  _atom_site_occupancy
  Fe  Fe1       1.0  0.16300  0.83700  0.00000  1.0000
  Li  Li1       1.0  0.50100  0.49900  0.00000  1.0000
  Li  Li2       1.0  0.00190  0.99800  0.50000  1.0000
  Li  Li3       1.0  0.66100  0.33900  0.50000  1.0000
  Li  Li4       1.0  0.33900  0.66100  0.50000  1.0000
  Ni  Ni1       1.0  0.83100  0.16900  0.00000  1.0000
  O   O1        1.0  0.57400  0.93400  0.22100  1.0000
  O   O2        1.0  0.94100  0.59400  0.23100  1.0000
  O   O3        1.0  0.23300  0.21800  0.23200  1.0000
  O   O4        1.0  0.78200  0.76700  0.76800  1.0000
  O   O5        1.0  0.40600  0.05860  0.76900  1.0000
  O   O6        1.0  0.06640  0.42600  0.77900  1.0000
