data_image0
_chemical_formula_structural       AlLi4O6Pd
_chemical_formula_sum              "Al1 Li4 O6 Pd1"
_cell_length_a       5.00775
_cell_length_b       5.00775
_cell_length_c       5.00311
_cell_angle_alpha    99.7681
_cell_angle_beta     99.7681
_cell_angle_gamma    120.048

_space_group_name_H-M_alt    "P 1"
_space_group_IT_number       1

loop_
  _space_group_symop_operation_xyz
  'x, y, z'

loop_
  _atom_site_type_symbol
  _atom_site_label
  _atom_site_symmetry_multiplicity
  _atom_site_fract_x
  _atom_site_fract_y
  _atom_site_fract_z
  _atom_site_occupancy
  Al  Al1       1.0  0.16600  0.83400  0.00000  1.0000
  Li  Li1       1.0  0.50000  0.50000  0.00000  1.0000
  Li  Li2       1.0  0.99700  0.00346  0.50000  1.0000
  Li  Li3       1.0  0.65900  0.34100  0.50000  1.0000
  Li  Li4       1.0  0.34400  0.65600  0.50000  1.0000
  O   O1        1.0  0.93600  0.59200  0.23000  1.0000
  O   O2        1.0  0.56500  0.92200  0.23100  1.0000
  O   O3        1.0  0.23400  0.22000  0.23300  1.0000
  O   O4        1.0  0.78000  0.76600  0.76700  1.0000
  O   O5        1.0  0.07770  0.43500  0.76900  1.0000
  O   O6        1.0  0.40800  0.06380  0.77000  1.0000
  Pd  Pd1       1.0  0.83300  0.16700  0.00000  1.0000
