data_image0
_chemical_formula_structural       AlLi4O6V
_chemical_formula_sum              "Al1 Li4 O6 V1"
_cell_length_a       4.90622
_cell_length_b       4.90622
_cell_length_c       4.98559
_cell_angle_alpha    99.6263
_cell_angle_beta     99.6263
_cell_angle_gamma    119.911

_space_group_name_H-M_alt    "P 1"
_space_group_IT_number       1

loop_
  _space_group_symop_operation_xyz
  'x, y, z'

loop_
  _atom_site_type_symbol
  _atom_site_label
  _atom_site_symmetry_multiplicity
  _atom_site_fract_x
  _atom_site_fract_y
  _atom_site_fract_z
  _atom_site_occupancy
  Al  Al1       1.0  0.83400  0.16600  0.00000  1.0000
  Li  Li1       1.0  0.50000  0.50000  0.00000  1.0000
  Li  Li2       1.0  0.00165  0.99800  0.50000  1.0000
  Li  Li3       1.0  0.65800  0.34200  0.50000  1.0000
  Li  Li4       1.0  0.34000  0.66000  0.50000  1.0000
  O   O1        1.0  0.93500  0.57800  0.22400  1.0000
  O   O2        1.0  0.57400  0.93400  0.22500  1.0000
  O   O3        1.0  0.21800  0.21700  0.22800  1.0000
  O   O4        1.0  0.78300  0.78200  0.77200  1.0000
  O   O5        1.0  0.06630  0.42600  0.77500  1.0000
  O   O6        1.0  0.42200  0.06480  0.77600  1.0000
  V   V1        1.0  0.16800  0.83200  0.00000  1.0000
