data_image0
_chemical_formula_structural       CoLiO2
_chemical_formula_sum              "Co1 Li1 O2"
_cell_length_a       4.91333
_cell_length_b       4.91333
_cell_length_c       4.91333
_cell_angle_alpha    33.687
_cell_angle_beta     33.687
_cell_angle_gamma    33.6869

_space_group_name_H-M_alt    "P 1"
_space_group_IT_number       1

loop_
  _space_group_symop_operation_xyz
  'x, y, z'

loop_
  _atom_site_type_symbol
  _atom_site_label
  _atom_site_symmetry_multiplicity
  _atom_site_fract_x
  _atom_site_fract_y
  _atom_site_fract_z
  _atom_site_occupancy
  Co  Co1       1.0  0.00000  0.00000  0.00000  1.0000
  Li  Li1       1.0  0.50000  0.50000  0.50000  1.0000
  O   O1        1.0  0.25500  0.25500  0.25500  1.0000
  O   O2        1.0  0.74500  0.74500  0.74500  1.0000
