data_image0
_chemical_formula_structural       CoLi4O6Zr
_chemical_formula_sum              "Co1 Li4 O6 Zr1"
_cell_length_a       5.16157
_cell_length_b       5.16157
_cell_length_c       5.11388
_cell_angle_alpha    99.4765
_cell_angle_beta     99.4765
_cell_angle_gamma    120.109

_space_group_name_H-M_alt    "P 1"
_space_group_IT_number       1

loop_
  _space_group_symop_operation_xyz
  'x, y, z'

loop_
  _atom_site_type_symbol
  _atom_site_label
  _atom_site_symmetry_multiplicity
  _atom_site_fract_x
  _atom_site_fract_y
  _atom_site_fract_z
  _atom_site_occupancy
  Co  Co1       1.0  0.82800  0.17200  0.00000  1.0000
  Li  Li1       1.0  0.50000  0.50000  0.00000  1.0000
  Li  Li2       1.0  0.98200  0.01830  0.50000  1.0000
  Li  Li3       1.0  0.66500  0.33500  0.50000  1.0000
  Li  Li4       1.0  0.35000  0.65000  0.50000  1.0000
  O   O1        1.0  0.59700  0.93300  0.23000  1.0000
  O   O2        1.0  0.91900  0.56000  0.24000  1.0000
  O   O3        1.0  0.22900  0.24000  0.24100  1.0000
  O   O4        1.0  0.76000  0.77100  0.75900  1.0000
  O   O5        1.0  0.44000  0.08140  0.76000  1.0000
  O   O6        1.0  0.06740  0.40300  0.77000  1.0000
  Zr  Zr1       1.0  0.16300  0.83700  0.00000  1.0000
