data_image0
_chemical_formula_structural       B4C4H20N8
_chemical_formula_sum              "B4 C4 H20 N8"
_cell_length_a       7.67494
_cell_length_b       6.23223
_cell_length_c       6.69532
_cell_angle_alpha    90
_cell_angle_beta     90
_cell_angle_gamma    90

_space_group_name_H-M_alt    "P 1"
_space_group_IT_number       1

loop_
  _space_group_symop_operation_xyz
  'x, y, z'

loop_
  _atom_site_type_symbol
  _atom_site_label
  _atom_site_symmetry_multiplicity
  _atom_site_fract_x
  _atom_site_fract_y
  _atom_site_fract_z
  _atom_site_occupancy
  B   B1        1.0  0.77800  0.62500  0.15200  1.0000
  B   B2        1.0  0.27800  0.87500  0.15200  1.0000
  B   B3        1.0  0.72200  0.12500  0.65200  1.0000
  B   B4        1.0  0.22200  0.37500  0.65200  1.0000
  C   C1        1.0  0.43500  0.03410  0.13300  1.0000
  C   C2        1.0  0.93500  0.46600  0.13300  1.0000
  C   C3        1.0  0.06510  0.53400  0.63300  1.0000
  C   C4        1.0  0.56500  0.96600  0.63300  1.0000
  H   H1        1.0  0.33300  0.69700  0.19200  1.0000
  H   H2        1.0  0.83300  0.80300  0.19200  1.0000
  H   H3        1.0  0.11500  0.11000  0.29500  1.0000
  H   H4        1.0  0.61500  0.39000  0.29500  1.0000
  H   H5        1.0  0.55200  0.64000  0.34800  1.0000
  H   H6        1.0  0.05200  0.86000  0.34800  1.0000
  H   H7        1.0  0.72600  0.54100  0.46100  1.0000
  H   H8        1.0  0.22600  0.95900  0.46100  1.0000
  H   H9        1.0  0.80400  0.12500  0.49700  1.0000
  H   H10       1.0  0.30400  0.37500  0.49700  1.0000
  H   H11       1.0  0.16700  0.19700  0.69200  1.0000
  H   H12       1.0  0.66700  0.30300  0.69200  1.0000
  H   H13       1.0  0.38500  0.61000  0.79500  1.0000
  H   H14       1.0  0.88500  0.89000  0.79500  1.0000
  H   H15       1.0  0.94800  0.14000  0.84800  1.0000
  H   H16       1.0  0.44800  0.36000  0.84800  1.0000
  H   H17       1.0  0.77400  0.04080  0.96100  1.0000
  H   H18       1.0  0.27400  0.45900  0.96100  1.0000
  H   H19       1.0  0.69600  0.62500  0.99700  1.0000
  H   H20       1.0  0.19600  0.87500  0.99700  1.0000
  N   N1        1.0  0.55200  0.15300  0.12000  1.0000
  N   N2        1.0  0.05220  0.34700  0.12000  1.0000
  N   N3        1.0  0.65900  0.54400  0.32800  1.0000
  N   N4        1.0  0.15900  0.95600  0.32800  1.0000
  N   N5        1.0  0.94800  0.65300  0.62000  1.0000
  N   N6        1.0  0.44800  0.84700  0.62000  1.0000
  N   N7        1.0  0.84100  0.04360  0.82800  1.0000
  N   N8        1.0  0.34100  0.45600  0.82800  1.0000
