data_image0
_chemical_formula_structural       Co5Th
_chemical_formula_sum              "Co5 Th1"
_cell_length_a       4.92647
_cell_length_b       4.92647
_cell_length_c       3.99789
_cell_angle_alpha    90
_cell_angle_beta     90
_cell_angle_gamma    119.983

_space_group_name_H-M_alt    "P 1"
_space_group_IT_number       1

loop_
  _space_group_symop_operation_xyz
  'x, y, z'

loop_
  _atom_site_type_symbol
  _atom_site_label
  _atom_site_symmetry_multiplicity
  _atom_site_fract_x
  _atom_site_fract_y
  _atom_site_fract_z
  _atom_site_occupancy
  Co  Co1       1.0  0.66700  0.33300  0.00000  1.0000
  Co  Co2       1.0  0.33300  0.66700  0.00000  1.0000
  Co  Co3       1.0  0.50000  0.00000  0.50000  1.0000
  Co  Co4       1.0  0.50000  0.50000  0.50000  1.0000
  Co  Co5       1.0  0.00000  0.50000  0.50000  1.0000
  Th  Th1       1.0  0.00000  0.00000  0.00000  1.0000
