data_image0
_chemical_formula_structural       Co3Ni3P3
_chemical_formula_sum              "Co3 Ni3 P3"
_cell_length_a       5.79217
_cell_length_b       5.79217
_cell_length_c       3.32978
_cell_angle_alpha    90
_cell_angle_beta     90
_cell_angle_gamma    119.998

_space_group_name_H-M_alt    "P 1"
_space_group_IT_number       1

loop_
  _space_group_symop_operation_xyz
  'x, y, z'

loop_
  _atom_site_type_symbol
  _atom_site_label
  _atom_site_symmetry_multiplicity
  _atom_site_fract_x
  _atom_site_fract_y
  _atom_site_fract_z
  _atom_site_occupancy
  Co  Co1       1.0  0.26200  0.00000  0.00000  1.0000
  Co  Co2       1.0  0.00000  0.26200  0.00000  1.0000
  Co  Co3       1.0  0.73800  0.73800  0.00000  1.0000
  Ni  Ni1       1.0  0.60300  0.00000  0.50000  1.0000
  Ni  Ni2       1.0  0.39700  0.39700  0.50000  1.0000
  Ni  Ni3       1.0  0.00000  0.60300  0.50000  1.0000
  P   P1        1.0  0.66700  0.33300  0.00000  1.0000
  P   P2        1.0  0.33300  0.66700  0.00000  1.0000
  P   P3        1.0  0.00000  0.00000  0.50000  1.0000
