data_image0
_chemical_formula_structural       Ce2Co2Ge2H2
_chemical_formula_sum              "Ce2 Co2 Ge2 H2"
_cell_length_a       4.02613
_cell_length_b       4.02613
_cell_length_c       7.90265
_cell_angle_alpha    90
_cell_angle_beta     90
_cell_angle_gamma    90

_space_group_name_H-M_alt    "P 1"
_space_group_IT_number       1

loop_
  _space_group_symop_operation_xyz
  'x, y, z'

loop_
  _atom_site_type_symbol
  _atom_site_label
  _atom_site_symmetry_multiplicity
  _atom_site_fract_x
  _atom_site_fract_y
  _atom_site_fract_z
  _atom_site_occupancy
  Ce  Ce1       1.0  0.75000  0.75000  0.32800  1.0000
  Ce  Ce2       1.0  0.25000  0.25000  0.67200  1.0000
  Co  Co1       1.0  0.75000  0.25000  0.00000  1.0000
  Co  Co2       1.0  0.25000  0.75000  0.00000  1.0000
  Ge  Ge1       1.0  0.25000  0.25000  0.15700  1.0000
  Ge  Ge2       1.0  0.75000  0.75000  0.84300  1.0000
  H   H1        1.0  0.75000  0.25000  0.50000  1.0000
  H   H2        1.0  0.25000  0.75000  0.50000  1.0000
