data_image0
_chemical_formula_structural       CoMoO6Sr2
_chemical_formula_sum              "Co1 Mo1 O6 Sr2"
_cell_length_a       5.51536
_cell_length_b       5.51536
_cell_length_c       5.6149
_cell_angle_alpha    119.415
_cell_angle_beta     119.415
_cell_angle_gamma    90

_space_group_name_H-M_alt    "P 1"
_space_group_IT_number       1

loop_
  _space_group_symop_operation_xyz
  'x, y, z'

loop_
  _atom_site_type_symbol
  _atom_site_label
  _atom_site_symmetry_multiplicity
  _atom_site_fract_x
  _atom_site_fract_y
  _atom_site_fract_z
  _atom_site_occupancy
  Co  Co1       1.0  0.00000  0.00000  0.00000  1.0000
  Mo  Mo1       1.0  0.50000  0.50000  0.00000  1.0000
  O   O1        1.0  0.30100  0.21200  0.00000  1.0000
  O   O2        1.0  0.78800  0.30100  0.00000  1.0000
  O   O3        1.0  0.21200  0.69900  0.00000  1.0000
  O   O4        1.0  0.69900  0.78800  0.00000  1.0000
  O   O5        1.0  0.74000  0.74000  0.47900  1.0000
  O   O6        1.0  0.26000  0.26000  0.52100  1.0000
  Sr  Sr1       1.0  0.75000  0.25000  0.50000  1.0000
  Sr  Sr2       1.0  0.25000  0.75000  0.50000  1.0000
