data_image0
_chemical_formula_structural       Co6Nd4
_chemical_formula_sum              "Co6 Nd4"
_cell_length_a       4.92436
_cell_length_b       5.57838
_cell_length_c       7.53229
_cell_angle_alpha    90
_cell_angle_beta     90
_cell_angle_gamma    63.8081

_space_group_name_H-M_alt    "P 1"
_space_group_IT_number       1

loop_
  _space_group_symop_operation_xyz
  'x, y, z'

loop_
  _atom_site_type_symbol
  _atom_site_label
  _atom_site_symmetry_multiplicity
  _atom_site_fract_x
  _atom_site_fract_y
  _atom_site_fract_z
  _atom_site_occupancy
  Co  Co1       1.0  0.00000  0.00000  0.00000  1.0000
  Co  Co2       1.0  0.33800  0.82400  0.25000  1.0000
  Co  Co3       1.0  0.83800  0.82400  0.25000  1.0000
  Co  Co4       1.0  0.50000  0.00000  0.50000  1.0000
  Co  Co5       1.0  0.16200  0.17600  0.75000  1.0000
  Co  Co6       1.0  0.66200  0.17600  0.75000  1.0000
  Nd  Nd1       1.0  0.34500  0.31000  0.09310  1.0000
  Nd  Nd2       1.0  0.84500  0.31000  0.40700  1.0000
  Nd  Nd3       1.0  0.15500  0.69000  0.59300  1.0000
  Nd  Nd4       1.0  0.65500  0.69000  0.90700  1.0000
