data_image0
_chemical_formula_structural       B8Co8Gd2
_chemical_formula_sum              "B8 Co8 Gd2"
_cell_length_a       5.01551
_cell_length_b       5.01551
_cell_length_c       7.00221
_cell_angle_alpha    90
_cell_angle_beta     90
_cell_angle_gamma    90

_space_group_name_H-M_alt    "P 1"
_space_group_IT_number       1

loop_
  _space_group_symop_operation_xyz
  'x, y, z'

loop_
  _atom_site_type_symbol
  _atom_site_label
  _atom_site_symmetry_multiplicity
  _atom_site_fract_x
  _atom_site_fract_y
  _atom_site_fract_z
  _atom_site_occupancy
  B   B1        1.0  0.25000  0.07530  0.08980  1.0000
  B   B2        1.0  0.25000  0.42500  0.08980  1.0000
  B   B3        1.0  0.57500  0.75000  0.41000  1.0000
  B   B4        1.0  0.92500  0.75000  0.41000  1.0000
  B   B5        1.0  0.07530  0.25000  0.59000  1.0000
  B   B6        1.0  0.42500  0.25000  0.59000  1.0000
  B   B7        1.0  0.75000  0.57500  0.91000  1.0000
  B   B8        1.0  0.75000  0.92500  0.91000  1.0000
  Co  Co1       1.0  0.00406  0.75000  0.11500  1.0000
  Co  Co2       1.0  0.49600  0.75000  0.11500  1.0000
  Co  Co3       1.0  0.25000  0.50400  0.38500  1.0000
  Co  Co4       1.0  0.25000  0.99600  0.38500  1.0000
  Co  Co5       1.0  0.75000  0.00406  0.61500  1.0000
  Co  Co6       1.0  0.75000  0.49600  0.61500  1.0000
  Co  Co7       1.0  0.50400  0.25000  0.88500  1.0000
  Co  Co8       1.0  0.99600  0.25000  0.88500  1.0000
  Gd  Gd1       1.0  0.75000  0.25000  0.25000  1.0000
  Gd  Gd2       1.0  0.25000  0.75000  0.75000  1.0000
