data_image0
_chemical_formula_structural       B6Co12Gd
_chemical_formula_sum              "B6 Co12 Gd1"
_cell_length_a       5.96006
_cell_length_b       5.96006
_cell_length_c       5.96006
_cell_angle_alpha    104.023
_cell_angle_beta     104.023
_cell_angle_gamma    104.023

_space_group_name_H-M_alt    "P 1"
_space_group_IT_number       1

loop_
  _space_group_symop_operation_xyz
  'x, y, z'

loop_
  _atom_site_type_symbol
  _atom_site_label
  _atom_site_symmetry_multiplicity
  _atom_site_fract_x
  _atom_site_fract_y
  _atom_site_fract_z
  _atom_site_occupancy
  B   B1        1.0  0.23200  0.67700  0.23200  1.0000
  B   B2        1.0  0.67700  0.23200  0.23200  1.0000
  B   B3        1.0  0.76800  0.76800  0.32300  1.0000
  B   B4        1.0  0.23200  0.23200  0.67700  1.0000
  B   B5        1.0  0.32300  0.76800  0.76800  1.0000
  B   B6        1.0  0.76800  0.32300  0.76800  1.0000
  Co  Co1       1.0  0.50000  0.86800  0.13200  1.0000
  Co  Co2       1.0  0.86800  0.50000  0.13200  1.0000
  Co  Co3       1.0  0.45600  0.45600  0.18600  1.0000
  Co  Co4       1.0  0.45600  0.18600  0.45600  1.0000
  Co  Co5       1.0  0.18600  0.45600  0.45600  1.0000
  Co  Co6       1.0  0.86800  0.13200  0.50000  1.0000
  Co  Co7       1.0  0.13200  0.86800  0.50000  1.0000
  Co  Co8       1.0  0.81400  0.54400  0.54400  1.0000
  Co  Co9       1.0  0.54400  0.81400  0.54400  1.0000
  Co  Co10      1.0  0.54400  0.54400  0.81400  1.0000
  Co  Co11      1.0  0.13200  0.50000  0.86800  1.0000
  Co  Co12      1.0  0.50000  0.13200  0.86800  1.0000
  Gd  Gd1       1.0  0.00000  0.00000  0.00000  1.0000
