data_image0
_chemical_formula_structural       Ba4In4O10
_chemical_formula_sum              "Ba4 In4 O10"
_cell_length_a       5.98103
_cell_length_b       6.1401
_cell_length_c       9.41118
_cell_angle_alpha    109.039
_cell_angle_beta     108.528
_cell_angle_gamma    90

_space_group_name_H-M_alt    "P 1"
_space_group_IT_number       1

loop_
  _space_group_symop_operation_xyz
  'x, y, z'

loop_
  _atom_site_type_symbol
  _atom_site_label
  _atom_site_symmetry_multiplicity
  _atom_site_fract_x
  _atom_site_fract_y
  _atom_site_fract_z
  _atom_site_occupancy
  Ba  Ba1       1.0  0.60600  0.09410  0.21900  1.0000
  Ba  Ba2       1.0  0.10600  0.62500  0.21900  1.0000
  Ba  Ba3       1.0  0.88700  0.37500  0.78100  1.0000
  Ba  Ba4       1.0  0.38700  0.90600  0.78100  1.0000
  In  In1       1.0  0.99100  0.00000  0.00000  1.0000
  In  In2       1.0  0.49100  0.50000  0.00000  1.0000
  In  In3       1.0  0.27100  0.31300  0.50000  1.0000
  In  In4       1.0  0.77100  0.68700  0.50000  1.0000
  O   O1        1.0  0.25400  0.25300  0.01740  1.0000
  O   O2        1.0  0.75400  0.26400  0.01740  1.0000
  O   O3        1.0  0.10100  0.08100  0.27500  1.0000
  O   O4        1.0  0.60100  0.69400  0.27500  1.0000
  O   O5        1.0  0.61700  0.37900  0.50000  1.0000
  O   O6        1.0  0.11700  0.62100  0.50000  1.0000
  O   O7        1.0  0.32600  0.30600  0.72500  1.0000
  O   O8        1.0  0.82600  0.91900  0.72500  1.0000
  O   O9        1.0  0.73700  0.73600  0.98300  1.0000
  O   O10       1.0  0.23700  0.74700  0.98300  1.0000
