data_image0
_chemical_formula_structural       Al2C2H4K2O10
_chemical_formula_sum              "Al2 C2 H4 K2 O10"
_cell_length_a       5.61997
_cell_length_b       6.15369
_cell_length_c       6.68964
_cell_angle_alpha    62.6167
_cell_angle_beta     90
_cell_angle_gamma    90

_space_group_name_H-M_alt    "P 1"
_space_group_IT_number       1

loop_
  _space_group_symop_operation_xyz
  'x, y, z'

loop_
  _atom_site_type_symbol
  _atom_site_label
  _atom_site_symmetry_multiplicity
  _atom_site_fract_x
  _atom_site_fract_y
  _atom_site_fract_z
  _atom_site_occupancy
  Al  Al1       1.0  0.00000  0.00000  0.00000  1.0000
  Al  Al2       1.0  0.50000  0.00000  0.00000  1.0000
  C   C1        1.0  0.25000  0.78500  0.43000  1.0000
  C   C2        1.0  0.75000  0.21500  0.57000  1.0000
  H   H1        1.0  0.75000  0.21500  0.16300  1.0000
  H   H2        1.0  0.75000  0.62200  0.16300  1.0000
  H   H3        1.0  0.25000  0.37800  0.83700  1.0000
  H   H4        1.0  0.25000  0.78500  0.83700  1.0000
  K   K1        1.0  0.25000  0.34400  0.31200  1.0000
  K   K2        1.0  0.75000  0.65600  0.68800  1.0000
  O   O1        1.0  0.75000  0.19100  0.02660  1.0000
  O   O2        1.0  0.75000  0.78200  0.02660  1.0000
  O   O3        1.0  0.04840  0.83900  0.32200  1.0000
  O   O4        1.0  0.45200  0.83900  0.32200  1.0000
  O   O5        1.0  0.75000  0.32300  0.35400  1.0000
  O   O6        1.0  0.25000  0.67700  0.64600  1.0000
  O   O7        1.0  0.54800  0.16100  0.67800  1.0000
  O   O8        1.0  0.95200  0.16100  0.67800  1.0000
  O   O9        1.0  0.25000  0.21800  0.97300  1.0000
  O   O10       1.0  0.25000  0.80900  0.97300  1.0000
