data_image0
_chemical_formula_structural       Ba2Co4O11Pr2
_chemical_formula_sum              "Ba2 Co4 O11 Pr2"
_cell_length_a       3.91889
_cell_length_b       7.86491
_cell_length_c       7.68731
_cell_angle_alpha    90
_cell_angle_beta     90
_cell_angle_gamma    90

_space_group_name_H-M_alt    "P 1"
_space_group_IT_number       1

loop_
  _space_group_symop_operation_xyz
  'x, y, z'

loop_
  _atom_site_type_symbol
  _atom_site_label
  _atom_site_symmetry_multiplicity
  _atom_site_fract_x
  _atom_site_fract_y
  _atom_site_fract_z
  _atom_site_occupancy
  Ba  Ba1       1.0  0.50000  0.25100  0.00000  1.0000
  Ba  Ba2       1.0  0.50000  0.74900  0.00000  1.0000
  Co  Co1       1.0  0.00000  0.50000  0.25100  1.0000
  Co  Co2       1.0  0.00000  0.00000  0.25400  1.0000
  Co  Co3       1.0  0.00000  0.00000  0.74600  1.0000
  Co  Co4       1.0  0.00000  0.50000  0.74900  1.0000
  O   O1        1.0  0.00000  0.00000  0.00000  1.0000
  O   O2        1.0  0.00000  0.50000  0.00000  1.0000
  O   O3        1.0  0.50000  0.50000  0.26700  1.0000
  O   O4        1.0  0.00000  0.23000  0.29200  1.0000
  O   O5        1.0  0.00000  0.77000  0.29200  1.0000
  O   O6        1.0  0.50000  0.00000  0.30900  1.0000
  O   O7        1.0  0.00000  0.50000  0.50000  1.0000
  O   O8        1.0  0.50000  0.00000  0.69100  1.0000
  O   O9        1.0  0.00000  0.23000  0.70800  1.0000
  O   O10       1.0  0.00000  0.77000  0.70800  1.0000
  O   O11       1.0  0.50000  0.50000  0.73300  1.0000
  Pr  Pr1       1.0  0.50000  0.26900  0.50000  1.0000
  Pr  Pr2       1.0  0.50000  0.73100  0.50000  1.0000
