data_image0
_chemical_formula_structural       CoIrO6Sr2
_chemical_formula_sum              "Co1 Ir1 O6 Sr2"
_cell_length_a       5.60826
_cell_length_b       5.55558
_cell_length_c       5.55558
_cell_angle_alpha    59.9993
_cell_angle_beta     120.399
_cell_angle_gamma    120.399

_space_group_name_H-M_alt    "P 1"
_space_group_IT_number       1

loop_
  _space_group_symop_operation_xyz
  'x, y, z'

loop_
  _atom_site_type_symbol
  _atom_site_label
  _atom_site_symmetry_multiplicity
  _atom_site_fract_x
  _atom_site_fract_y
  _atom_site_fract_z
  _atom_site_occupancy
  Co  Co1       1.0  0.00000  0.00000  0.00000  1.0000
  Ir  Ir1       1.0  0.50000  0.50000  0.50000  1.0000
  O   O1        1.0  0.22600  0.71600  0.22300  1.0000
  O   O2        1.0  0.31100  0.25300  0.25300  1.0000
  O   O3        1.0  0.77400  0.77700  0.28400  1.0000
  O   O4        1.0  0.22600  0.22300  0.71600  1.0000
  O   O5        1.0  0.68900  0.74700  0.74700  1.0000
  O   O6        1.0  0.77400  0.28400  0.77700  1.0000
  Sr  Sr1       1.0  0.75200  0.25000  0.25000  1.0000
  Sr  Sr2       1.0  0.24800  0.75000  0.75000  1.0000
