data_image0
_chemical_formula_structural       Cl15CoZr6
_chemical_formula_sum              "Cl15 Co1 Zr6"
_cell_length_a       8.90002
_cell_length_b       8.90002
_cell_length_c       8.90002
_cell_angle_alpha    109.471
_cell_angle_beta     109.471
_cell_angle_gamma    109.471

_space_group_name_H-M_alt    "P 1"
_space_group_IT_number       1

loop_
  _space_group_symop_operation_xyz
  'x, y, z'

loop_
  _atom_site_type_symbol
  _atom_site_label
  _atom_site_symmetry_multiplicity
  _atom_site_fract_x
  _atom_site_fract_y
  _atom_site_fract_z
  _atom_site_occupancy
  Cl  Cl1       1.0  0.75200  0.24800  0.00000  1.0000
  Cl  Cl2       1.0  0.50000  0.50000  0.00000  1.0000
  Cl  Cl3       1.0  0.24800  0.75200  0.00000  1.0000
  Cl  Cl4       1.0  0.75200  0.00000  0.24800  1.0000
  Cl  Cl5       1.0  0.49700  0.24800  0.24800  1.0000
  Cl  Cl6       1.0  0.24800  0.49700  0.24800  1.0000
  Cl  Cl7       1.0  0.00000  0.75200  0.24800  1.0000
  Cl  Cl8       1.0  0.24800  0.24800  0.49700  1.0000
  Cl  Cl9       1.0  0.50000  0.00000  0.50000  1.0000
  Cl  Cl10      1.0  0.00000  0.50000  0.50000  1.0000
  Cl  Cl11      1.0  0.75200  0.75200  0.50300  1.0000
  Cl  Cl12      1.0  0.24800  0.00000  0.75200  1.0000
  Cl  Cl13      1.0  0.00000  0.24800  0.75200  1.0000
  Cl  Cl14      1.0  0.75200  0.50300  0.75200  1.0000
  Cl  Cl15      1.0  0.50300  0.75200  0.75200  1.0000
  Co  Co1       1.0  0.00000  0.00000  0.00000  1.0000
  Zr  Zr1       1.0  0.24000  0.24000  0.00000  1.0000
  Zr  Zr2       1.0  0.76000  0.76000  0.00000  1.0000
  Zr  Zr3       1.0  0.24000  0.00000  0.24000  1.0000
  Zr  Zr4       1.0  0.00000  0.24000  0.24000  1.0000
  Zr  Zr5       1.0  0.76000  0.00000  0.76000  1.0000
  Zr  Zr6       1.0  0.00000  0.76000  0.76000  1.0000
