data_image0
_chemical_formula_structural       BaCoEu2O5
_chemical_formula_sum              "Ba1 Co1 Eu2 O5"
_cell_length_a       3.79049
_cell_length_b       5.7808
_cell_length_c       6.60797
_cell_angle_alpha    115.939
_cell_angle_beta     106.667
_cell_angle_gamma    90

_space_group_name_H-M_alt    "P 1"
_space_group_IT_number       1

loop_
  _space_group_symop_operation_xyz
  'x, y, z'

loop_
  _atom_site_type_symbol
  _atom_site_label
  _atom_site_symmetry_multiplicity
  _atom_site_fract_x
  _atom_site_fract_y
  _atom_site_fract_z
  _atom_site_occupancy
  Ba  Ba1       1.0  0.00000  0.00000  0.00000  1.0000
  Co  Co1       1.0  0.50000  0.50000  0.00000  1.0000
  Eu  Eu1       1.0  0.21000  0.71000  0.41900  1.0000
  Eu  Eu2       1.0  0.79000  0.29000  0.58100  1.0000
  O   O1        1.0  0.00000  0.50000  0.00000  1.0000
  O   O2        1.0  0.63000  0.39800  0.25900  1.0000
  O   O3        1.0  0.63000  0.86100  0.25900  1.0000
  O   O4        1.0  0.37000  0.13900  0.74100  1.0000
  O   O5        1.0  0.37000  0.60200  0.74100  1.0000
