data_image0
_chemical_formula_structural       Co2O12Sb4
_chemical_formula_sum              "Co2 O12 Sb4"
_cell_length_a       4.66279
_cell_length_b       4.66279
_cell_length_c       9.36163
_cell_angle_alpha    90
_cell_angle_beta     90
_cell_angle_gamma    90

_space_group_name_H-M_alt    "P 1"
_space_group_IT_number       1

loop_
  _space_group_symop_operation_xyz
  'x, y, z'

loop_
  _atom_site_type_symbol
  _atom_site_label
  _atom_site_symmetry_multiplicity
  _atom_site_fract_x
  _atom_site_fract_y
  _atom_site_fract_z
  _atom_site_occupancy
  Co  Co1       1.0  0.00000  0.00000  0.00000  1.0000
  Co  Co2       1.0  0.50000  0.50000  0.50000  1.0000
  O   O1        1.0  0.30800  0.30800  0.00000  1.0000
  O   O2        1.0  0.69200  0.69200  0.00000  1.0000
  O   O3        1.0  0.80200  0.19800  0.17100  1.0000
  O   O4        1.0  0.19800  0.80200  0.17100  1.0000
  O   O5        1.0  0.30200  0.30200  0.32900  1.0000
  O   O6        1.0  0.69800  0.69800  0.32900  1.0000
  O   O7        1.0  0.80800  0.19200  0.50000  1.0000
  O   O8        1.0  0.19200  0.80800  0.50000  1.0000
  O   O9        1.0  0.30200  0.30200  0.67100  1.0000
  O   O10       1.0  0.69800  0.69800  0.67100  1.0000
  O   O11       1.0  0.80200  0.19800  0.82900  1.0000
  O   O12       1.0  0.19800  0.80200  0.82900  1.0000
  Sb  Sb1       1.0  0.50000  0.50000  0.16700  1.0000
  Sb  Sb2       1.0  0.00000  0.00000  0.33300  1.0000
  Sb  Sb3       1.0  0.00000  0.00000  0.66700  1.0000
  Sb  Sb4       1.0  0.50000  0.50000  0.83300  1.0000
