data_image0
_chemical_formula_structural       B16Gd4Os4
_chemical_formula_sum              "B16 Gd4 Os4"
_cell_length_a       5.99063
_cell_length_b       11.589
_cell_length_c       3.5794
_cell_angle_alpha    90
_cell_angle_beta     90
_cell_angle_gamma    90

_space_group_name_H-M_alt    "P 1"
_space_group_IT_number       1

loop_
  _space_group_symop_operation_xyz
  'x, y, z'

loop_
  _atom_site_type_symbol
  _atom_site_label
  _atom_site_symmetry_multiplicity
  _atom_site_fract_x
  _atom_site_fract_y
  _atom_site_fract_z
  _atom_site_occupancy
  B   B1        1.0  0.86300  0.03030  0.50000  1.0000
  B   B2        1.0  0.38800  0.04640  0.50000  1.0000
  B   B3        1.0  0.78800  0.18500  0.50000  1.0000
  B   B4        1.0  0.47400  0.19100  0.50000  1.0000
  B   B5        1.0  0.97400  0.30900  0.50000  1.0000
  B   B6        1.0  0.28800  0.31500  0.50000  1.0000
  B   B7        1.0  0.88800  0.45400  0.50000  1.0000
  B   B8        1.0  0.36300  0.47000  0.50000  1.0000
  B   B9        1.0  0.63700  0.53000  0.50000  1.0000
  B   B10       1.0  0.11200  0.54600  0.50000  1.0000
  B   B11       1.0  0.71200  0.68500  0.50000  1.0000
  B   B12       1.0  0.02570  0.69100  0.50000  1.0000
  B   B13       1.0  0.52600  0.80900  0.50000  1.0000
  B   B14       1.0  0.21200  0.81500  0.50000  1.0000
  B   B15       1.0  0.61200  0.95400  0.50000  1.0000
  B   B16       1.0  0.13700  0.97000  0.50000  1.0000
  Gd  Gd1       1.0  0.12800  0.15000  0.00000  1.0000
  Gd  Gd2       1.0  0.62800  0.35000  0.00000  1.0000
  Gd  Gd3       1.0  0.37200  0.65000  0.00000  1.0000
  Gd  Gd4       1.0  0.87200  0.85000  0.00000  1.0000
  Os  Os1       1.0  0.64000  0.09300  0.00000  1.0000
  Os  Os2       1.0  0.14000  0.40700  0.00000  1.0000
  Os  Os3       1.0  0.86000  0.59300  0.00000  1.0000
  Os  Os4       1.0  0.36000  0.90700  0.00000  1.0000
