data_image0
_chemical_formula_structural       B16Ru4Tm4
_chemical_formula_sum              "B16 Ru4 Tm4"
_cell_length_a       5.92054
_cell_length_b       11.4418
_cell_length_c       3.52795
_cell_angle_alpha    90
_cell_angle_beta     90
_cell_angle_gamma    90

_space_group_name_H-M_alt    "P 1"
_space_group_IT_number       1

loop_
  _space_group_symop_operation_xyz
  'x, y, z'

loop_
  _atom_site_type_symbol
  _atom_site_label
  _atom_site_symmetry_multiplicity
  _atom_site_fract_x
  _atom_site_fract_y
  _atom_site_fract_z
  _atom_site_occupancy
  B   B1        1.0  0.86500  0.03010  0.50000  1.0000
  B   B2        1.0  0.38700  0.04730  0.50000  1.0000
  B   B3        1.0  0.79100  0.18600  0.50000  1.0000
  B   B4        1.0  0.47600  0.19300  0.50000  1.0000
  B   B5        1.0  0.97600  0.30700  0.50000  1.0000
  B   B6        1.0  0.29100  0.31400  0.50000  1.0000
  B   B7        1.0  0.88700  0.45300  0.50000  1.0000
  B   B8        1.0  0.36500  0.47000  0.50000  1.0000
  B   B9        1.0  0.63500  0.53000  0.50000  1.0000
  B   B10       1.0  0.11300  0.54700  0.50000  1.0000
  B   B11       1.0  0.70900  0.68600  0.50000  1.0000
  B   B12       1.0  0.02350  0.69300  0.50000  1.0000
  B   B13       1.0  0.52400  0.80700  0.50000  1.0000
  B   B14       1.0  0.20900  0.81400  0.50000  1.0000
  B   B15       1.0  0.61300  0.95300  0.50000  1.0000
  B   B16       1.0  0.13500  0.97000  0.50000  1.0000
  Ru  Ru1       1.0  0.64100  0.09290  0.00000  1.0000
  Ru  Ru2       1.0  0.14100  0.40700  0.00000  1.0000
  Ru  Ru3       1.0  0.85900  0.59300  0.00000  1.0000
  Ru  Ru4       1.0  0.35900  0.90700  0.00000  1.0000
  Tm  Tm1       1.0  0.12900  0.15000  0.00000  1.0000
  Tm  Tm2       1.0  0.62900  0.35000  0.00000  1.0000
  Tm  Tm3       1.0  0.37100  0.65000  0.00000  1.0000
  Tm  Tm4       1.0  0.87100  0.85000  0.00000  1.0000
