data_image0
_chemical_formula_structural       B16Ho4Mo4
_chemical_formula_sum              "B16 Ho4 Mo4"
_cell_length_a       6.01494
_cell_length_b       11.6208
_cell_length_c       3.61088
_cell_angle_alpha    90
_cell_angle_beta     90
_cell_angle_gamma    90

_space_group_name_H-M_alt    "P 1"
_space_group_IT_number       1

loop_
  _space_group_symop_operation_xyz
  'x, y, z'

loop_
  _atom_site_type_symbol
  _atom_site_label
  _atom_site_symmetry_multiplicity
  _atom_site_fract_x
  _atom_site_fract_y
  _atom_site_fract_z
  _atom_site_occupancy
  B   B1        1.0  0.86700  0.03200  0.50000  1.0000
  B   B2        1.0  0.38600  0.04770  0.50000  1.0000
  B   B3        1.0  0.78700  0.18600  0.50000  1.0000
  B   B4        1.0  0.47600  0.19400  0.50000  1.0000
  B   B5        1.0  0.97600  0.30600  0.50000  1.0000
  B   B6        1.0  0.28700  0.31400  0.50000  1.0000
  B   B7        1.0  0.88600  0.45200  0.50000  1.0000
  B   B8        1.0  0.36700  0.46800  0.50000  1.0000
  B   B9        1.0  0.63300  0.53200  0.50000  1.0000
  B   B10       1.0  0.11400  0.54800  0.50000  1.0000
  B   B11       1.0  0.71300  0.68600  0.50000  1.0000
  B   B12       1.0  0.02410  0.69400  0.50000  1.0000
  B   B13       1.0  0.52400  0.80600  0.50000  1.0000
  B   B14       1.0  0.21300  0.81400  0.50000  1.0000
  B   B15       1.0  0.61400  0.95200  0.50000  1.0000
  B   B16       1.0  0.13300  0.96800  0.50000  1.0000
  Ho  Ho1       1.0  0.12700  0.15000  0.00000  1.0000
  Ho  Ho2       1.0  0.62700  0.35000  0.00000  1.0000
  Ho  Ho3       1.0  0.37300  0.65000  0.00000  1.0000
  Ho  Ho4       1.0  0.87300  0.85000  0.00000  1.0000
  Mo  Mo1       1.0  0.63000  0.08380  0.00000  1.0000
  Mo  Mo2       1.0  0.13000  0.41600  0.00000  1.0000
  Mo  Mo3       1.0  0.87000  0.58400  0.00000  1.0000
  Mo  Mo4       1.0  0.37000  0.91600  0.00000  1.0000
