data_image0
_chemical_formula_structural       B16Ho4Os4
_chemical_formula_sum              "B16 Ho4 Os4"
_cell_length_a       5.95114
_cell_length_b       11.5091
_cell_length_c       3.55432
_cell_angle_alpha    90
_cell_angle_beta     90
_cell_angle_gamma    90

_space_group_name_H-M_alt    "P 1"
_space_group_IT_number       1

loop_
  _space_group_symop_operation_xyz
  'x, y, z'

loop_
  _atom_site_type_symbol
  _atom_site_label
  _atom_site_symmetry_multiplicity
  _atom_site_fract_x
  _atom_site_fract_y
  _atom_site_fract_z
  _atom_site_occupancy
  B   B1        1.0  0.86400  0.03010  0.50000  1.0000
  B   B2        1.0  0.38700  0.04690  0.50000  1.0000
  B   B3        1.0  0.78900  0.18600  0.50000  1.0000
  B   B4        1.0  0.47400  0.19200  0.50000  1.0000
  B   B5        1.0  0.97400  0.30800  0.50000  1.0000
  B   B6        1.0  0.28900  0.31400  0.50000  1.0000
  B   B7        1.0  0.88700  0.45300  0.50000  1.0000
  B   B8        1.0  0.36400  0.47000  0.50000  1.0000
  B   B9        1.0  0.63600  0.53000  0.50000  1.0000
  B   B10       1.0  0.11300  0.54700  0.50000  1.0000
  B   B11       1.0  0.71100  0.68600  0.50000  1.0000
  B   B12       1.0  0.02560  0.69200  0.50000  1.0000
  B   B13       1.0  0.52600  0.80800  0.50000  1.0000
  B   B14       1.0  0.21100  0.81400  0.50000  1.0000
  B   B15       1.0  0.61300  0.95300  0.50000  1.0000
  B   B16       1.0  0.13600  0.97000  0.50000  1.0000
  Ho  Ho1       1.0  0.12800  0.15000  0.00000  1.0000
  Ho  Ho2       1.0  0.62800  0.35000  0.00000  1.0000
  Ho  Ho3       1.0  0.37200  0.65000  0.00000  1.0000
  Ho  Ho4       1.0  0.87200  0.85000  0.00000  1.0000
  Os  Os1       1.0  0.64100  0.09350  0.00000  1.0000
  Os  Os2       1.0  0.14100  0.40600  0.00000  1.0000
  Os  Os3       1.0  0.85900  0.59400  0.00000  1.0000
  Os  Os4       1.0  0.35900  0.90600  0.00000  1.0000
