data_image0
_chemical_formula_structural       Be2Cr2Dy6S14
_chemical_formula_sum              "Be2 Cr2 Dy6 S14"
_cell_length_a       9.53652
_cell_length_b       9.53654
_cell_length_c       6.02242
_cell_angle_alpha    90
_cell_angle_beta     90
_cell_angle_gamma    120

_space_group_name_H-M_alt    "P 1"
_space_group_IT_number       1

loop_
  _space_group_symop_operation_xyz
  'x, y, z'

loop_
  _atom_site_type_symbol
  _atom_site_label
  _atom_site_symmetry_multiplicity
  _atom_site_fract_x
  _atom_site_fract_y
  _atom_site_fract_z
  _atom_site_occupancy
  Be  Be1       1.0  0.66700  0.33300  0.14200  1.0000
  Be  Be2       1.0  0.33300  0.66700  0.64200  1.0000
  Cr  Cr1       1.0  0.00000  0.00000  0.05320  1.0000
  Cr  Cr2       1.0  0.00000  0.00000  0.55300  1.0000
  Dy  Dy1       1.0  0.15600  0.39400  0.22900  1.0000
  Dy  Dy2       1.0  0.60600  0.76200  0.22900  1.0000
  Dy  Dy3       1.0  0.23800  0.84400  0.22900  1.0000
  Dy  Dy4       1.0  0.84400  0.60600  0.72900  1.0000
  Dy  Dy5       1.0  0.76200  0.15600  0.72900  1.0000
  Dy  Dy6       1.0  0.39400  0.23800  0.72900  1.0000
  S   S1        1.0  0.52300  0.09970  0.00926  1.0000
  S   S2        1.0  0.90000  0.42300  0.00926  1.0000
  S   S3        1.0  0.57700  0.47700  0.00926  1.0000
  S   S4        1.0  0.22800  0.13300  0.31000  1.0000
  S   S5        1.0  0.90500  0.77200  0.31000  1.0000
  S   S6        1.0  0.86700  0.09480  0.31000  1.0000
  S   S7        1.0  0.66700  0.33300  0.49200  1.0000
  S   S8        1.0  0.42300  0.52300  0.50900  1.0000
  S   S9        1.0  0.09970  0.57700  0.50900  1.0000
  S   S10       1.0  0.47700  0.90000  0.50900  1.0000
  S   S11       1.0  0.09480  0.22800  0.81000  1.0000
  S   S12       1.0  0.77200  0.86700  0.81000  1.0000
  S   S13       1.0  0.13300  0.90500  0.81000  1.0000
  S   S14       1.0  0.33300  0.66700  0.99200  1.0000
