data_image0
_chemical_formula_structural       ClO4Rb
_chemical_formula_sum              "Cl1 O4 Rb1"
_cell_length_a       5.24454
_cell_length_b       5.24454
_cell_length_c       5.24454
_cell_angle_alpha    120
_cell_angle_beta     90
_cell_angle_gamma    120

_space_group_name_H-M_alt    "P 1"
_space_group_IT_number       1

loop_
  _space_group_symop_operation_xyz
  'x, y, z'

loop_
  _atom_site_type_symbol
  _atom_site_label
  _atom_site_symmetry_multiplicity
  _atom_site_fract_x
  _atom_site_fract_y
  _atom_site_fract_z
  _atom_site_occupancy
  Cl  Cl1       1.0  0.00000  0.00000  0.00000  1.0000
  O   O1        1.0  0.34100  0.22700  0.11400  1.0000
  O   O2        1.0  0.88600  0.22700  0.11400  1.0000
  O   O3        1.0  0.88600  0.77300  0.11400  1.0000
  O   O4        1.0  0.88600  0.77300  0.65900  1.0000
  Rb  Rb1       1.0  0.50000  0.00000  0.50000  1.0000
