data_image0
_chemical_formula_structural       C4H8Mn2O12
_chemical_formula_sum              "C4 H8 Mn2 O12"
_cell_length_a       5.67362
_cell_length_b       6.22182
_cell_length_c       8.13475
_cell_angle_alpha    100.825
_cell_angle_beta     110.41
_cell_angle_gamma    62.8742

_space_group_name_H-M_alt    "P 1"
_space_group_IT_number       1

loop_
  _space_group_symop_operation_xyz
  'x, y, z'

loop_
  _atom_site_type_symbol
  _atom_site_label
  _atom_site_symmetry_multiplicity
  _atom_site_fract_x
  _atom_site_fract_y
  _atom_site_fract_z
  _atom_site_occupancy
  C   C1        1.0  0.38500  0.25200  0.14800  1.0000
  C   C2        1.0  0.48900  0.24800  0.35200  1.0000
  C   C3        1.0  0.51100  0.75200  0.64800  1.0000
  C   C4        1.0  0.61500  0.74800  0.85200  1.0000
  H   H1        1.0  0.01370  0.79400  0.14400  1.0000
  H   H2        1.0  0.61000  0.70200  0.14800  1.0000
  H   H3        1.0  0.16500  0.79800  0.35200  1.0000
  H   H4        1.0  0.66400  0.70600  0.35600  1.0000
  H   H5        1.0  0.33600  0.29400  0.64400  1.0000
  H   H6        1.0  0.83500  0.20200  0.64800  1.0000
  H   H7        1.0  0.39000  0.29800  0.85200  1.0000
  H   H8        1.0  0.98600  0.20600  0.85600  1.0000
  Mn  Mn1       1.0  0.93800  0.25000  0.25000  1.0000
  Mn  Mn2       1.0  0.06220  0.75000  0.75000  1.0000
  O   O1        1.0  0.54600  0.25100  0.07210  1.0000
  O   O2        1.0  0.14600  0.25700  0.07350  1.0000
  O   O3        1.0  0.13500  0.85700  0.23800  1.0000
  O   O4        1.0  0.75400  0.64300  0.26200  1.0000
  O   O5        1.0  0.33000  0.24300  0.42700  1.0000
  O   O6        1.0  0.72500  0.24900  0.42800  1.0000
  O   O7        1.0  0.27500  0.75100  0.57200  1.0000
  O   O8        1.0  0.67000  0.75700  0.57300  1.0000
  O   O9        1.0  0.24600  0.35700  0.73800  1.0000
  O   O10       1.0  0.86500  0.14300  0.76200  1.0000
  O   O11       1.0  0.85400  0.74300  0.92700  1.0000
  O   O12       1.0  0.45400  0.74900  0.92800  1.0000
