data_image0
_chemical_formula_structural       Be26Ca2
_chemical_formula_sum              "Be26 Ca2"
_cell_length_a       7.23973
_cell_length_b       7.23973
_cell_length_c       7.23973
_cell_angle_alpha    120
_cell_angle_beta     90
_cell_angle_gamma    120

_space_group_name_H-M_alt    "P 1"
_space_group_IT_number       1

loop_
  _space_group_symop_operation_xyz
  'x, y, z'

loop_
  _atom_site_type_symbol
  _atom_site_label
  _atom_site_symmetry_multiplicity
  _atom_site_fract_x
  _atom_site_fract_y
  _atom_site_fract_z
  _atom_site_occupancy
  Be  Be1       1.0  0.00000  0.00000  0.00000  1.0000
  Be  Be2       1.0  0.28900  0.00000  0.06470  1.0000
  Be  Be3       1.0  0.06470  0.35300  0.06470  1.0000
  Be  Be4       1.0  0.71100  0.77600  0.06470  1.0000
  Be  Be5       1.0  0.56500  0.00000  0.21100  1.0000
  Be  Be6       1.0  0.43500  0.64700  0.21100  1.0000
  Be  Be7       1.0  0.21100  0.77600  0.21100  1.0000
  Be  Be8       1.0  0.06470  0.00000  0.28900  1.0000
  Be  Be9       1.0  0.93500  0.22400  0.28900  1.0000
  Be  Be10      1.0  0.28900  0.35300  0.28900  1.0000
  Be  Be11      1.0  0.78900  0.00000  0.43500  1.0000
  Be  Be12      1.0  0.43500  0.22400  0.43500  1.0000
  Be  Be13      1.0  0.21100  0.64700  0.43500  1.0000
  Be  Be14      1.0  0.50000  0.00000  0.50000  1.0000
  Be  Be15      1.0  0.21100  0.00000  0.56500  1.0000
  Be  Be16      1.0  0.78900  0.35300  0.56500  1.0000
  Be  Be17      1.0  0.56500  0.77600  0.56500  1.0000
  Be  Be18      1.0  0.71100  0.64700  0.71100  1.0000
  Be  Be19      1.0  0.06470  0.77600  0.71100  1.0000
  Be  Be20      1.0  0.93500  0.00000  0.71100  1.0000
  Be  Be21      1.0  0.43500  0.00000  0.78900  1.0000
  Be  Be22      1.0  0.78900  0.22400  0.78900  1.0000
  Be  Be23      1.0  0.56500  0.35300  0.78900  1.0000
  Be  Be24      1.0  0.28900  0.22400  0.93500  1.0000
  Be  Be25      1.0  0.93500  0.64700  0.93500  1.0000
  Be  Be26      1.0  0.71100  0.00000  0.93500  1.0000
  Ca  Ca1       1.0  0.75000  0.50000  0.25000  1.0000
  Ca  Ca2       1.0  0.25000  0.50000  0.75000  1.0000
