data_image0
_chemical_formula_structural       S2V8Zr18
_chemical_formula_sum              "S2 V8 Zr18"
_cell_length_a       8.63593
_cell_length_b       8.63613
_cell_length_c       8.51286
_cell_angle_alpha    90
_cell_angle_beta     90
_cell_angle_gamma    119.999

_space_group_name_H-M_alt    "P 1"
_space_group_IT_number       1

loop_
  _space_group_symop_operation_xyz
  'x, y, z'

loop_
  _atom_site_type_symbol
  _atom_site_label
  _atom_site_symmetry_multiplicity
  _atom_site_fract_x
  _atom_site_fract_y
  _atom_site_fract_z
  _atom_site_occupancy
  S   S1        1.0  0.66700  0.33300  0.25000  1.0000
  S   S2        1.0  0.33300  0.66700  0.75000  1.0000
  V   V1        1.0  0.00000  0.00000  0.00000  1.0000
  V   V2        1.0  0.10300  0.20500  0.25000  1.0000
  V   V3        1.0  0.10300  0.89700  0.25000  1.0000
  V   V4        1.0  0.79500  0.89700  0.25000  1.0000
  V   V5        1.0  0.00000  0.00000  0.50000  1.0000
  V   V6        1.0  0.20500  0.10300  0.75000  1.0000
  V   V7        1.0  0.89700  0.10300  0.75000  1.0000
  V   V8        1.0  0.89700  0.79500  0.75000  1.0000
  Zr  Zr1       1.0  0.80400  0.60900  0.05070  1.0000
  Zr  Zr2       1.0  0.39100  0.19600  0.05070  1.0000
  Zr  Zr3       1.0  0.80400  0.19600  0.05070  1.0000
  Zr  Zr4       1.0  0.08300  0.54200  0.25000  1.0000
  Zr  Zr5       1.0  0.45800  0.54200  0.25000  1.0000
  Zr  Zr6       1.0  0.45800  0.91700  0.25000  1.0000
  Zr  Zr7       1.0  0.39100  0.19600  0.44900  1.0000
  Zr  Zr8       1.0  0.80400  0.19600  0.44900  1.0000
  Zr  Zr9       1.0  0.80400  0.60900  0.44900  1.0000
  Zr  Zr10      1.0  0.19600  0.39100  0.55100  1.0000
  Zr  Zr11      1.0  0.19600  0.80400  0.55100  1.0000
  Zr  Zr12      1.0  0.60900  0.80400  0.55100  1.0000
  Zr  Zr13      1.0  0.54200  0.08300  0.75000  1.0000
  Zr  Zr14      1.0  0.54200  0.45800  0.75000  1.0000
  Zr  Zr15      1.0  0.91700  0.45800  0.75000  1.0000
  Zr  Zr16      1.0  0.19600  0.80400  0.94900  1.0000
  Zr  Zr17      1.0  0.60900  0.80400  0.94900  1.0000
  Zr  Zr18      1.0  0.19600  0.39100  0.94900  1.0000
