data_image0
_chemical_formula_structural       CoO6V2
_chemical_formula_sum              "Co1 O6 V2"
_cell_length_a       3.51349
_cell_length_b       4.92597
_cell_length_c       6.56861
_cell_angle_alpha    111.44
_cell_angle_beta     90
_cell_angle_gamma    110.893

_space_group_name_H-M_alt    "P 1"
_space_group_IT_number       1

loop_
  _space_group_symop_operation_xyz
  'x, y, z'

loop_
  _atom_site_type_symbol
  _atom_site_label
  _atom_site_symmetry_multiplicity
  _atom_site_fract_x
  _atom_site_fract_y
  _atom_site_fract_z
  _atom_site_occupancy
  Co  Co1       1.0  0.98800  0.00000  0.00000  1.0000
  O   O1        1.0  0.64400  0.30900  0.10700  1.0000
  O   O2        1.0  0.96100  0.94900  0.28400  1.0000
  O   O3        1.0  0.29800  0.62200  0.43800  1.0000
  O   O4        1.0  0.67600  0.37800  0.56200  1.0000
  O   O5        1.0  0.01180  0.05090  0.71600  1.0000
  O   O6        1.0  0.33500  0.69100  0.89300  1.0000
  V   V1        1.0  0.79900  0.62700  0.35200  1.0000
  V   V2        1.0  0.17300  0.37300  0.64800  1.0000
