data_image0
_chemical_formula_structural       Lu8O16Pd4
_chemical_formula_sum              "Lu8 O16 Pd4"
_cell_length_a       5.48634
_cell_length_b       5.50315
_cell_length_c       11.4761
_cell_angle_alpha    90
_cell_angle_beta     90
_cell_angle_gamma    90

_space_group_name_H-M_alt    "P 1"
_space_group_IT_number       1

loop_
  _space_group_symop_operation_xyz
  'x, y, z'

loop_
  _atom_site_type_symbol
  _atom_site_label
  _atom_site_symmetry_multiplicity
  _atom_site_fract_x
  _atom_site_fract_y
  _atom_site_fract_z
  _atom_site_occupancy
  Lu  Lu1       1.0  0.49300  0.03550  0.16100  1.0000
  Lu  Lu2       1.0  0.00714  0.53500  0.16100  1.0000
  Lu  Lu3       1.0  0.99300  0.03550  0.33900  1.0000
  Lu  Lu4       1.0  0.50700  0.53500  0.33900  1.0000
  Lu  Lu5       1.0  0.49300  0.46500  0.66100  1.0000
  Lu  Lu6       1.0  0.00714  0.96500  0.66100  1.0000
  Lu  Lu7       1.0  0.99300  0.46500  0.83900  1.0000
  Lu  Lu8       1.0  0.50700  0.96500  0.83900  1.0000
  O   O1        1.0  0.17000  0.32900  0.00842  1.0000
  O   O2        1.0  0.33000  0.82900  0.00842  1.0000
  O   O3        1.0  0.75900  0.28700  0.24400  1.0000
  O   O4        1.0  0.74100  0.78700  0.24400  1.0000
  O   O5        1.0  0.25900  0.28700  0.25600  1.0000
  O   O6        1.0  0.24100  0.78700  0.25600  1.0000
  O   O7        1.0  0.67000  0.32900  0.49200  1.0000
  O   O8        1.0  0.83000  0.82900  0.49200  1.0000
  O   O9        1.0  0.17000  0.17100  0.50800  1.0000
  O   O10       1.0  0.33000  0.67100  0.50800  1.0000
  O   O11       1.0  0.75900  0.21300  0.74400  1.0000
  O   O12       1.0  0.74100  0.71300  0.74400  1.0000
  O   O13       1.0  0.25900  0.21300  0.75600  1.0000
  O   O14       1.0  0.24100  0.71300  0.75600  1.0000
  O   O15       1.0  0.67000  0.17100  0.99200  1.0000
  O   O16       1.0  0.83000  0.67100  0.99200  1.0000
  Pd  Pd1       1.0  0.00000  0.00000  0.00000  1.0000
  Pd  Pd2       1.0  0.50000  0.50000  0.00000  1.0000
  Pd  Pd3       1.0  0.50000  0.00000  0.50000  1.0000
  Pd  Pd4       1.0  0.00000  0.50000  0.50000  1.0000
