data_image0
_chemical_formula_structural       As2Rb6
_chemical_formula_sum              "As2 Rb6"
_cell_length_a       6.14947
_cell_length_b       6.14924
_cell_length_c       10.8311
_cell_angle_alpha    90
_cell_angle_beta     90
_cell_angle_gamma    120.001

_space_group_name_H-M_alt    "P 1"
_space_group_IT_number       1

loop_
  _space_group_symop_operation_xyz
  'x, y, z'

loop_
  _atom_site_type_symbol
  _atom_site_label
  _atom_site_symmetry_multiplicity
  _atom_site_fract_x
  _atom_site_fract_y
  _atom_site_fract_z
  _atom_site_occupancy
  As  As1       1.0  0.33300  0.66700  0.25000  1.0000
  As  As2       1.0  0.66700  0.33300  0.75000  1.0000
  Rb  Rb1       1.0  0.66700  0.33300  0.07910  1.0000
  Rb  Rb2       1.0  0.00000  0.00000  0.25000  1.0000
  Rb  Rb3       1.0  0.66700  0.33300  0.42100  1.0000
  Rb  Rb4       1.0  0.33300  0.66700  0.57900  1.0000
  Rb  Rb5       1.0  0.00001  0.00002  0.75000  1.0000
  Rb  Rb6       1.0  0.33300  0.66700  0.92100  1.0000
