data_image0
_chemical_formula_structural       Cd26Rb2
_chemical_formula_sum              "Cd26 Rb2"
_cell_length_a       9.84892
_cell_length_b       9.84892
_cell_length_c       9.84892
_cell_angle_alpha    120
_cell_angle_beta     90
_cell_angle_gamma    120

_space_group_name_H-M_alt    "P 1"
_space_group_IT_number       1

loop_
  _space_group_symop_operation_xyz
  'x, y, z'

loop_
  _atom_site_type_symbol
  _atom_site_label
  _atom_site_symmetry_multiplicity
  _atom_site_fract_x
  _atom_site_fract_y
  _atom_site_fract_z
  _atom_site_occupancy
  Cd  Cd1       1.0  0.00000  0.00000  0.00000  1.0000
  Cd  Cd2       1.0  0.69900  0.75800  0.05940  1.0000
  Cd  Cd3       1.0  0.30100  0.00000  0.05940  1.0000
  Cd  Cd4       1.0  0.05940  0.36100  0.05940  1.0000
  Cd  Cd5       1.0  0.55900  0.00000  0.19900  1.0000
  Cd  Cd6       1.0  0.19900  0.75800  0.19900  1.0000
  Cd  Cd7       1.0  0.44100  0.63900  0.19900  1.0000
  Cd  Cd8       1.0  0.94100  0.24200  0.30100  1.0000
  Cd  Cd9       1.0  0.05940  0.00000  0.30100  1.0000
  Cd  Cd10      1.0  0.30100  0.36100  0.30100  1.0000
  Cd  Cd11      1.0  0.44100  0.24200  0.44100  1.0000
  Cd  Cd12      1.0  0.19900  0.63900  0.44100  1.0000
  Cd  Cd13      1.0  0.80100  0.00000  0.44100  1.0000
  Cd  Cd14      1.0  0.50000  0.00000  0.50000  1.0000
  Cd  Cd15      1.0  0.19900  0.00000  0.55900  1.0000
  Cd  Cd16      1.0  0.80100  0.36100  0.55900  1.0000
  Cd  Cd17      1.0  0.55900  0.75800  0.55900  1.0000
  Cd  Cd18      1.0  0.94100  0.00000  0.69900  1.0000
  Cd  Cd19      1.0  0.69900  0.63900  0.69900  1.0000
  Cd  Cd20      1.0  0.05940  0.75800  0.69900  1.0000
  Cd  Cd21      1.0  0.80100  0.24200  0.80100  1.0000
  Cd  Cd22      1.0  0.55900  0.36100  0.80100  1.0000
  Cd  Cd23      1.0  0.44100  0.00000  0.80100  1.0000
  Cd  Cd24      1.0  0.69900  0.00000  0.94100  1.0000
  Cd  Cd25      1.0  0.30100  0.24200  0.94100  1.0000
  Cd  Cd26      1.0  0.94100  0.63900  0.94100  1.0000
  Rb  Rb1       1.0  0.75000  0.50000  0.25000  1.0000
  Rb  Rb2       1.0  0.25000  0.50000  0.75000  1.0000
