data_image0
_chemical_formula_structural       C4Fe12V12
_chemical_formula_sum              "C4 Fe12 V12"
_cell_length_a       7.56322
_cell_length_b       7.56322
_cell_length_c       7.56322
_cell_angle_alpha    120
_cell_angle_beta     90
_cell_angle_gamma    120

_space_group_name_H-M_alt    "P 1"
_space_group_IT_number       1

loop_
  _space_group_symop_operation_xyz
  'x, y, z'

loop_
  _atom_site_type_symbol
  _atom_site_label
  _atom_site_symmetry_multiplicity
  _atom_site_fract_x
  _atom_site_fract_y
  _atom_site_fract_z
  _atom_site_occupancy
  C   C1        1.0  0.00000  0.50000  0.00000  1.0000
  C   C2        1.0  0.00000  0.00000  0.50000  1.0000
  C   C3        1.0  0.50000  0.00000  0.50000  1.0000
  C   C4        1.0  0.00000  0.50000  0.50000  1.0000
  Fe  Fe1       1.0  0.00000  0.00000  0.00000  1.0000
  Fe  Fe2       1.0  0.50000  0.00000  0.00000  1.0000
  Fe  Fe3       1.0  0.50000  0.50000  0.00000  1.0000
  Fe  Fe4       1.0  0.70500  0.91000  0.11500  1.0000
  Fe  Fe5       1.0  0.29500  0.09020  0.20500  1.0000
  Fe  Fe6       1.0  0.29500  0.41000  0.20500  1.0000
  Fe  Fe7       1.0  0.61500  0.41000  0.20500  1.0000
  Fe  Fe8       1.0  0.50000  0.50000  0.50000  1.0000
  Fe  Fe9       1.0  0.38500  0.59000  0.79500  1.0000
  Fe  Fe10      1.0  0.70500  0.59000  0.79500  1.0000
  Fe  Fe11      1.0  0.70500  0.91000  0.79500  1.0000
  Fe  Fe12      1.0  0.29500  0.09020  0.88500  1.0000
  V   V1        1.0  0.31900  0.75000  0.18100  1.0000
  V   V2        1.0  0.93100  0.36200  0.18100  1.0000
  V   V3        1.0  0.93100  0.75000  0.18100  1.0000
  V   V4        1.0  0.06900  0.25000  0.43100  1.0000
  V   V5        1.0  0.68100  0.25000  0.43100  1.0000
  V   V6        1.0  0.68100  0.86200  0.43100  1.0000
  V   V7        1.0  0.93100  0.75000  0.56900  1.0000
  V   V8        1.0  0.31900  0.13800  0.56900  1.0000
  V   V9        1.0  0.31900  0.75000  0.56900  1.0000
  V   V10       1.0  0.68100  0.25000  0.81900  1.0000
  V   V11       1.0  0.06900  0.25000  0.81900  1.0000
  V   V12       1.0  0.06900  0.63800  0.81900  1.0000
