data_image0
_chemical_formula_structural       Fe2Hf18Re8
_chemical_formula_sum              "Fe2 Hf18 Re8"
_cell_length_a       8.54619
_cell_length_b       8.54622
_cell_length_c       8.46116
_cell_angle_alpha    90
_cell_angle_beta     90
_cell_angle_gamma    120

_space_group_name_H-M_alt    "P 1"
_space_group_IT_number       1

loop_
  _space_group_symop_operation_xyz
  'x, y, z'

loop_
  _atom_site_type_symbol
  _atom_site_label
  _atom_site_symmetry_multiplicity
  _atom_site_fract_x
  _atom_site_fract_y
  _atom_site_fract_z
  _atom_site_occupancy
  Fe  Fe1       1.0  0.33300  0.66700  0.25000  1.0000
  Fe  Fe2       1.0  0.66700  0.33300  0.75000  1.0000
  Hf  Hf1       1.0  0.20000  0.40100  0.05820  1.0000
  Hf  Hf2       1.0  0.20000  0.80000  0.05820  1.0000
  Hf  Hf3       1.0  0.59900  0.80000  0.05820  1.0000
  Hf  Hf4       1.0  0.54100  0.08130  0.25000  1.0000
  Hf  Hf5       1.0  0.54100  0.45900  0.25000  1.0000
  Hf  Hf6       1.0  0.91900  0.45900  0.25000  1.0000
  Hf  Hf7       1.0  0.20000  0.80000  0.44200  1.0000
  Hf  Hf8       1.0  0.59900  0.80000  0.44200  1.0000
  Hf  Hf9       1.0  0.20000  0.40100  0.44200  1.0000
  Hf  Hf10      1.0  0.80000  0.59900  0.55800  1.0000
  Hf  Hf11      1.0  0.40100  0.20000  0.55800  1.0000
  Hf  Hf12      1.0  0.80000  0.20000  0.55800  1.0000
  Hf  Hf13      1.0  0.08130  0.54100  0.75000  1.0000
  Hf  Hf14      1.0  0.45900  0.54100  0.75000  1.0000
  Hf  Hf15      1.0  0.45900  0.91900  0.75000  1.0000
  Hf  Hf16      1.0  0.40100  0.20000  0.94200  1.0000
  Hf  Hf17      1.0  0.80000  0.20000  0.94200  1.0000
  Hf  Hf18      1.0  0.80000  0.59900  0.94200  1.0000
  Re  Re1       1.0  0.00000  0.00000  0.00000  1.0000
  Re  Re2       1.0  0.22100  0.11000  0.25000  1.0000
  Re  Re3       1.0  0.89000  0.11000  0.25000  1.0000
  Re  Re4       1.0  0.89000  0.77900  0.25000  1.0000
  Re  Re5       1.0  0.00000  0.00000  0.50000  1.0000
  Re  Re6       1.0  0.11000  0.22100  0.75000  1.0000
  Re  Re7       1.0  0.11000  0.89000  0.75000  1.0000
  Re  Re8       1.0  0.77900  0.89000  0.75000  1.0000
