data_image0
_chemical_formula_structural       C4Mo12Ni12
_chemical_formula_sum              "C4 Mo12 Ni12"
_cell_length_a       7.83227
_cell_length_b       7.83227
_cell_length_c       7.83227
_cell_angle_alpha    120
_cell_angle_beta     90
_cell_angle_gamma    120

_space_group_name_H-M_alt    "P 1"
_space_group_IT_number       1

loop_
  _space_group_symop_operation_xyz
  'x, y, z'

loop_
  _atom_site_type_symbol
  _atom_site_label
  _atom_site_symmetry_multiplicity
  _atom_site_fract_x
  _atom_site_fract_y
  _atom_site_fract_z
  _atom_site_occupancy
  C   C1        1.0  0.37500  0.25000  0.12500  1.0000
  C   C2        1.0  0.87500  0.25000  0.12500  1.0000
  C   C3        1.0  0.87500  0.75000  0.12500  1.0000
  C   C4        1.0  0.87500  0.75000  0.62500  1.0000
  Mo  Mo1       1.0  0.54700  0.09450  0.04730  1.0000
  Mo  Mo2       1.0  0.54700  0.50000  0.04730  1.0000
  Mo  Mo3       1.0  0.95300  0.50000  0.04730  1.0000
  Mo  Mo4       1.0  0.79700  0.00000  0.20300  1.0000
  Mo  Mo5       1.0  0.20300  0.00000  0.20300  1.0000
  Mo  Mo6       1.0  0.20300  0.40500  0.20300  1.0000
  Mo  Mo7       1.0  0.95300  0.50000  0.45300  1.0000
  Mo  Mo8       1.0  0.95300  0.90500  0.45300  1.0000
  Mo  Mo9       1.0  0.54700  0.50000  0.45300  1.0000
  Mo  Mo10      1.0  0.20300  0.00000  0.79700  1.0000
  Mo  Mo11      1.0  0.79700  0.00000  0.79700  1.0000
  Mo  Mo12      1.0  0.79700  0.59500  0.79700  1.0000
  Ni  Ni1       1.0  0.37500  0.75000  0.12500  1.0000
  Ni  Ni2       1.0  0.58400  0.16700  0.41600  1.0000
  Ni  Ni3       1.0  0.58400  0.83300  0.41600  1.0000
  Ni  Ni4       1.0  0.24900  0.83300  0.41600  1.0000
  Ni  Ni5       1.0  0.16600  0.33300  0.49900  1.0000
  Ni  Ni6       1.0  0.37500  0.25000  0.62500  1.0000
  Ni  Ni7       1.0  0.87500  0.25000  0.62500  1.0000
  Ni  Ni8       1.0  0.37500  0.75000  0.62500  1.0000
  Ni  Ni9       1.0  0.58400  0.16700  0.75100  1.0000
  Ni  Ni10      1.0  0.16600  0.66700  0.83400  1.0000
  Ni  Ni11      1.0  0.16600  0.33300  0.83400  1.0000
  Ni  Ni12      1.0  0.50100  0.66700  0.83400  1.0000
