data_image0
_chemical_formula_structural       As4O11Yb4
_chemical_formula_sum              "As4 O11 Yb4"
_cell_length_a       5.36848
_cell_length_b       5.76042
_cell_length_c       8.39244
_cell_angle_alpha    90
_cell_angle_beta     90
_cell_angle_gamma    87.0203

_space_group_name_H-M_alt    "P 1"
_space_group_IT_number       1

loop_
  _space_group_symop_operation_xyz
  'x, y, z'

loop_
  _atom_site_type_symbol
  _atom_site_label
  _atom_site_symmetry_multiplicity
  _atom_site_fract_x
  _atom_site_fract_y
  _atom_site_fract_z
  _atom_site_occupancy
  As  As1       1.0  0.03130  0.00851  0.25000  1.0000
  As  As2       1.0  0.43400  0.43200  0.25000  1.0000
  As  As3       1.0  0.02490  0.04440  0.75000  1.0000
  As  As4       1.0  0.48000  0.48200  0.75000  1.0000
  O   O1        1.0  0.90400  0.85000  0.09130  1.0000
  O   O2        1.0  0.62000  0.33500  0.09280  1.0000
  O   O3        1.0  0.35700  0.89400  0.25000  1.0000
  O   O4        1.0  0.62000  0.33500  0.40700  1.0000
  O   O5        1.0  0.90400  0.85000  0.40900  1.0000
  O   O6        1.0  0.33700  0.63600  0.59300  1.0000
  O   O7        1.0  0.18400  0.18600  0.59900  1.0000
  O   O8        1.0  0.66500  0.18400  0.75000  1.0000
  O   O9        1.0  0.77400  0.60000  0.75000  1.0000
  O   O10       1.0  0.18400  0.18600  0.90100  1.0000
  O   O11       1.0  0.33700  0.63600  0.90700  1.0000
  Yb  Yb1       1.0  0.52400  0.97100  0.50000  1.0000
  Yb  Yb2       1.0  0.95800  0.50600  0.51500  1.0000
  Yb  Yb3       1.0  0.95800  0.50600  0.98500  1.0000
  Yb  Yb4       1.0  0.52400  0.97100  0.00000  1.0000
