data_image0
_chemical_formula_structural       Cu4Gd2Nb2O16Sr4
_chemical_formula_sum              "Cu4 Gd2 Nb2 O16 Sr4"
_cell_length_a       5.45172
_cell_length_b       5.45172
_cell_length_c       12.2285
_cell_angle_alpha    102.88
_cell_angle_beta     102.88
_cell_angle_gamma    90

_space_group_name_H-M_alt    "P 1"
_space_group_IT_number       1

loop_
  _space_group_symop_operation_xyz
  'x, y, z'

loop_
  _atom_site_type_symbol
  _atom_site_label
  _atom_site_symmetry_multiplicity
  _atom_site_fract_x
  _atom_site_fract_y
  _atom_site_fract_z
  _atom_site_occupancy
  Cu  Cu1       1.0  0.18100  0.18100  0.36100  1.0000
  Cu  Cu2       1.0  0.68100  0.68100  0.36100  1.0000
  Cu  Cu3       1.0  0.31900  0.31900  0.63900  1.0000
  Cu  Cu4       1.0  0.81900  0.81900  0.63900  1.0000
  Gd  Gd1       1.0  0.75000  0.25000  0.50000  1.0000
  Gd  Gd2       1.0  0.25000  0.75000  0.50000  1.0000
  Nb  Nb1       1.0  0.00000  0.00000  0.00000  1.0000
  Nb  Nb2       1.0  0.50000  0.50000  0.00000  1.0000
  O   O1        1.0  0.67600  0.17600  0.00000  1.0000
  O   O2        1.0  0.17600  0.32400  0.00000  1.0000
  O   O3        1.0  0.82400  0.67600  0.00000  1.0000
  O   O4        1.0  0.32400  0.82400  0.00000  1.0000
  O   O5        1.0  0.08510  0.08510  0.17000  1.0000
  O   O6        1.0  0.58500  0.58500  0.17000  1.0000
  O   O7        1.0  0.44300  0.43100  0.37400  1.0000
  O   O8        1.0  0.94300  0.44300  0.37400  1.0000
  O   O9        1.0  0.43100  0.93100  0.37400  1.0000
  O   O10       1.0  0.93100  0.94300  0.37400  1.0000
  O   O11       1.0  0.06880  0.05710  0.62600  1.0000
  O   O12       1.0  0.56900  0.06880  0.62600  1.0000
  O   O13       1.0  0.05710  0.55700  0.62600  1.0000
  O   O14       1.0  0.55700  0.56900  0.62600  1.0000
  O   O15       1.0  0.41500  0.41500  0.83000  1.0000
  O   O16       1.0  0.91500  0.91500  0.83000  1.0000
  Sr  Sr1       1.0  0.60100  0.10100  0.20200  1.0000
  Sr  Sr2       1.0  0.10100  0.60100  0.20200  1.0000
  Sr  Sr3       1.0  0.89900  0.39900  0.79800  1.0000
  Sr  Sr4       1.0  0.39900  0.89900  0.79800  1.0000
