data_image0
_chemical_formula_structural       Al16Hf6Rh7
_chemical_formula_sum              "Al16 Hf6 Rh7"
_cell_length_a       8.69665
_cell_length_b       8.69665
_cell_length_c       8.69665
_cell_angle_alpha    120
_cell_angle_beta     90
_cell_angle_gamma    120

_space_group_name_H-M_alt    "P 1"
_space_group_IT_number       1

loop_
  _space_group_symop_operation_xyz
  'x, y, z'

loop_
  _atom_site_type_symbol
  _atom_site_label
  _atom_site_symmetry_multiplicity
  _atom_site_fract_x
  _atom_site_fract_y
  _atom_site_fract_z
  _atom_site_occupancy
  Al  Al1       1.0  0.33800  0.67600  0.01350  1.0000
  Al  Al2       1.0  0.35900  0.23900  0.12000  1.0000
  Al  Al3       1.0  0.88000  0.23900  0.12000  1.0000
  Al  Al4       1.0  0.88000  0.76100  0.12000  1.0000
  Al  Al5       1.0  0.66200  0.32400  0.33800  1.0000
  Al  Al6       1.0  0.01350  0.67600  0.33800  1.0000
  Al  Al7       1.0  0.66200  0.67600  0.33800  1.0000
  Al  Al8       1.0  0.12000  0.23900  0.35900  1.0000
  Al  Al9       1.0  0.88000  0.76100  0.64100  1.0000
  Al  Al10      1.0  0.33800  0.67600  0.66200  1.0000
  Al  Al11      1.0  0.33800  0.32400  0.66200  1.0000
  Al  Al12      1.0  0.98600  0.32400  0.66200  1.0000
  Al  Al13      1.0  0.12000  0.23900  0.88000  1.0000
  Al  Al14      1.0  0.12000  0.76100  0.88000  1.0000
  Al  Al15      1.0  0.64100  0.76100  0.88000  1.0000
  Al  Al16      1.0  0.66200  0.32400  0.98600  1.0000
  Hf  Hf1       1.0  0.31500  0.00000  0.31500  1.0000
  Hf  Hf2       1.0  0.31500  0.63000  0.31500  1.0000
  Hf  Hf3       1.0  0.68500  0.00000  0.31500  1.0000
  Hf  Hf4       1.0  0.31500  0.00000  0.68500  1.0000
  Hf  Hf5       1.0  0.68500  0.00000  0.68500  1.0000
  Hf  Hf6       1.0  0.68500  0.37000  0.68500  1.0000
  Rh  Rh1       1.0  0.00000  0.00000  0.00000  1.0000
  Rh  Rh2       1.0  0.50000  0.00000  0.00000  1.0000
  Rh  Rh3       1.0  0.00000  0.50000  0.00000  1.0000
  Rh  Rh4       1.0  0.50000  0.50000  0.00000  1.0000
  Rh  Rh5       1.0  0.00000  0.00000  0.50000  1.0000
  Rh  Rh6       1.0  0.00000  0.50000  0.50000  1.0000
  Rh  Rh7       1.0  0.50000  0.50000  0.50000  1.0000
