data_image0
_chemical_formula_structural       Fe23Gd6
_chemical_formula_sum              "Fe23 Gd6"
_cell_length_a       8.46529
_cell_length_b       8.46529
_cell_length_c       8.46529
_cell_angle_alpha    120
_cell_angle_beta     90
_cell_angle_gamma    120

_space_group_name_H-M_alt    "P 1"
_space_group_IT_number       1

loop_
  _space_group_symop_operation_xyz
  'x, y, z'

loop_
  _atom_site_type_symbol
  _atom_site_label
  _atom_site_symmetry_multiplicity
  _atom_site_fract_x
  _atom_site_fract_y
  _atom_site_fract_z
  _atom_site_occupancy
  Fe  Fe1       1.0  0.00000  0.00000  0.00000  1.0000
  Fe  Fe2       1.0  0.50000  0.00000  0.00000  1.0000
  Fe  Fe3       1.0  0.00000  0.50000  0.00000  1.0000
  Fe  Fe4       1.0  0.50000  0.50000  0.00000  1.0000
  Fe  Fe5       1.0  0.67600  0.35200  0.02870  1.0000
  Fe  Fe6       1.0  0.36400  0.24300  0.12100  1.0000
  Fe  Fe7       1.0  0.87900  0.24300  0.12100  1.0000
  Fe  Fe8       1.0  0.87900  0.75700  0.12100  1.0000
  Fe  Fe9       1.0  0.67600  0.35200  0.32400  1.0000
  Fe  Fe10      1.0  0.67600  0.64800  0.32400  1.0000
  Fe  Fe11      1.0  0.97100  0.64800  0.32400  1.0000
  Fe  Fe12      1.0  0.12100  0.24300  0.36400  1.0000
  Fe  Fe13      1.0  0.00000  0.00000  0.50000  1.0000
  Fe  Fe14      1.0  0.00000  0.50000  0.50000  1.0000
  Fe  Fe15      1.0  0.50000  0.50000  0.50000  1.0000
  Fe  Fe16      1.0  0.87900  0.75700  0.63600  1.0000
  Fe  Fe17      1.0  0.02870  0.35200  0.67600  1.0000
  Fe  Fe18      1.0  0.32400  0.35200  0.67600  1.0000
  Fe  Fe19      1.0  0.32400  0.64800  0.67600  1.0000
  Fe  Fe20      1.0  0.12100  0.24300  0.87900  1.0000
  Fe  Fe21      1.0  0.12100  0.75700  0.87900  1.0000
  Fe  Fe22      1.0  0.63600  0.75700  0.87900  1.0000
  Fe  Fe23      1.0  0.32400  0.64800  0.97100  1.0000
  Gd  Gd1       1.0  0.29200  0.00000  0.29200  1.0000
  Gd  Gd2       1.0  0.70800  0.00000  0.29200  1.0000
  Gd  Gd3       1.0  0.29200  0.58400  0.29200  1.0000
  Gd  Gd4       1.0  0.70800  0.00000  0.70800  1.0000
  Gd  Gd5       1.0  0.29200  0.00000  0.70800  1.0000
  Gd  Gd6       1.0  0.70800  0.41600  0.70800  1.0000
