data_image0
_chemical_formula_structural       C2H10Ho2O14P2
_chemical_formula_sum              "C2 H10 Ho2 O14 P2"
_cell_length_a       6.3401
_cell_length_b       6.74613
_cell_length_c       7.38112
_cell_angle_alpha    110.43
_cell_angle_beta     94.1137
_cell_angle_gamma    91.7426

_space_group_name_H-M_alt    "P 1"
_space_group_IT_number       1

loop_
  _space_group_symop_operation_xyz
  'x, y, z'

loop_
  _atom_site_type_symbol
  _atom_site_label
  _atom_site_symmetry_multiplicity
  _atom_site_fract_x
  _atom_site_fract_y
  _atom_site_fract_z
  _atom_site_occupancy
  C   C1        1.0  0.94200  0.09610  0.49600  1.0000
  C   C2        1.0  0.05810  0.90400  0.50400  1.0000
  H   H1        1.0  0.59200  0.27500  0.19700  1.0000
  H   H2        1.0  0.16700  0.52700  0.32400  1.0000
  H   H3        1.0  0.28800  0.32700  0.35900  1.0000
  H   H4        1.0  0.53800  0.75700  0.38000  1.0000
  H   H5        1.0  0.52800  0.12400  0.41000  1.0000
  H   H6        1.0  0.47200  0.87600  0.59000  1.0000
  H   H7        1.0  0.46200  0.24300  0.62000  1.0000
  H   H8        1.0  0.71200  0.67300  0.64100  1.0000
  H   H9        1.0  0.83300  0.47300  0.67600  1.0000
  H   H10       1.0  0.40800  0.72500  0.80300  1.0000
  Ho  Ho1       1.0  0.87600  0.77500  0.06180  1.0000
  Ho  Ho2       1.0  0.12400  0.22500  0.93800  1.0000
  O   O1        1.0  0.82200  0.43100  0.03760  1.0000
  O   O2        1.0  0.20600  0.95300  0.04960  1.0000
  O   O3        1.0  0.53200  0.77100  0.12700  1.0000
  O   O4        1.0  0.22100  0.38400  0.26100  1.0000
  O   O5        1.0  0.84800  0.08590  0.33700  1.0000
  O   O6        1.0  0.05010  0.74800  0.34500  1.0000
  O   O7        1.0  0.41300  0.19900  0.48100  1.0000
  O   O8        1.0  0.58700  0.80100  0.51900  1.0000
  O   O9        1.0  0.95000  0.25200  0.65500  1.0000
  O   O10       1.0  0.15200  0.91400  0.66300  1.0000
  O   O11       1.0  0.77900  0.61600  0.73900  1.0000
  O   O12       1.0  0.46800  0.22900  0.87300  1.0000
  O   O13       1.0  0.79400  0.04740  0.95000  1.0000
  O   O14       1.0  0.17800  0.56900  0.96200  1.0000
  P   P1        1.0  0.66200  0.24600  0.01390  1.0000
  P   P2        1.0  0.33800  0.75400  0.98600  1.0000
