data_image0
_chemical_formula_structural       C2H10O14P2Yb2
_chemical_formula_sum              "C2 H10 O14 P2 Yb2"
_cell_length_a       6.3143
_cell_length_b       6.80551
_cell_length_c       7.31756
_cell_angle_alpha    114.915
_cell_angle_beta     93.4426
_cell_angle_gamma    91.593

_space_group_name_H-M_alt    "P 1"
_space_group_IT_number       1

loop_
  _space_group_symop_operation_xyz
  'x, y, z'

loop_
  _atom_site_type_symbol
  _atom_site_label
  _atom_site_symmetry_multiplicity
  _atom_site_fract_x
  _atom_site_fract_y
  _atom_site_fract_z
  _atom_site_occupancy
  C   C1        1.0  0.96800  0.21100  0.48100  1.0000
  C   C2        1.0  0.03230  0.78900  0.51900  1.0000
  H   H1        1.0  0.57100  0.26300  0.15400  1.0000
  H   H2        1.0  0.54200  0.79700  0.38200  1.0000
  H   H3        1.0  0.33300  0.56300  0.38300  1.0000
  H   H4        1.0  0.51700  0.09060  0.38300  1.0000
  H   H5        1.0  0.31800  0.33600  0.38400  1.0000
  H   H6        1.0  0.68200  0.66400  0.61600  1.0000
  H   H7        1.0  0.48300  0.90900  0.61700  1.0000
  H   H8        1.0  0.66700  0.43700  0.61700  1.0000
  H   H9        1.0  0.45800  0.20300  0.61800  1.0000
  H   H10       1.0  0.42900  0.73700  0.84600  1.0000
  O   O1        1.0  0.21000  0.58500  0.01230  1.0000
  O   O2        1.0  0.20600  0.97400  0.08720  1.0000
  O   O3        1.0  0.55200  0.83600  0.18100  1.0000
  O   O4        1.0  0.88400  0.17200  0.32200  1.0000
  O   O5        1.0  0.24200  0.42500  0.32400  1.0000
  O   O6        1.0  0.94900  0.76300  0.36200  1.0000
  O   O7        1.0  0.48700  0.23000  0.49600  1.0000
  O   O8        1.0  0.51300  0.77000  0.50400  1.0000
  O   O9        1.0  0.05090  0.23700  0.63800  1.0000
  O   O10       1.0  0.75800  0.57500  0.67600  1.0000
  O   O11       1.0  0.11600  0.82800  0.67800  1.0000
  O   O12       1.0  0.44800  0.16400  0.81900  1.0000
  O   O13       1.0  0.79400  0.02640  0.91300  1.0000
  O   O14       1.0  0.79000  0.41500  0.98800  1.0000
  P   P1        1.0  0.34900  0.78200  0.03360  1.0000
  P   P2        1.0  0.65100  0.21800  0.96600  1.0000
  Yb  Yb1       1.0  0.87300  0.75600  0.01590  1.0000
  Yb  Yb2       1.0  0.12700  0.24400  0.98400  1.0000
