data_image0
_chemical_formula_structural       C4H12N4Ni2O8
_chemical_formula_sum              "C4 H12 N4 Ni2 O8"
_cell_length_a       6.49739
_cell_length_b       7.23279
_cell_length_c       7.46915
_cell_angle_alpha    106.715
_cell_angle_beta     115.782
_cell_angle_gamma    63.3101

_space_group_name_H-M_alt    "P 1"
_space_group_IT_number       1

loop_
  _space_group_symop_operation_xyz
  'x, y, z'

loop_
  _atom_site_type_symbol
  _atom_site_label
  _atom_site_symmetry_multiplicity
  _atom_site_fract_x
  _atom_site_fract_y
  _atom_site_fract_z
  _atom_site_occupancy
  C   C1        1.0  0.00025  0.96900  0.09020  1.0000
  C   C2        1.0  0.87900  0.53100  0.41000  1.0000
  C   C3        1.0  0.12100  0.46900  0.59000  1.0000
  C   C4        1.0  0.00000  0.03120  0.91000  1.0000
  H   H1        1.0  0.31800  0.43900  0.04520  1.0000
  H   H2        1.0  0.16300  0.60800  0.18200  1.0000
  H   H3        1.0  0.68800  0.99300  0.21700  1.0000
  H   H4        1.0  0.46400  0.50700  0.28300  1.0000
  H   H5        1.0  0.58900  0.89200  0.31800  1.0000
  H   H6        1.0  0.71200  0.06110  0.45500  1.0000
  H   H7        1.0  0.28800  0.93900  0.54500  1.0000
  H   H8        1.0  0.41100  0.10800  0.68200  1.0000
  H   H9        1.0  0.53600  0.49300  0.71700  1.0000
  H   H10       1.0  0.31200  0.00688  0.78300  1.0000
  H   H11       1.0  0.83700  0.39200  0.81800  1.0000
  H   H12       1.0  0.68200  0.56100  0.95500  1.0000
  N   N1        1.0  0.31300  0.47100  0.18700  1.0000
  N   N2        1.0  0.59700  0.02930  0.31300  1.0000
  N   N3        1.0  0.40300  0.97100  0.68700  1.0000
  N   N4        1.0  0.68700  0.52900  0.81300  1.0000
  Ni  Ni1       1.0  0.24900  0.25000  0.25000  1.0000
  Ni  Ni2       1.0  0.75100  0.75000  0.75000  1.0000
  O   O1        1.0  0.88000  0.85500  0.05140  1.0000
  O   O2        1.0  0.88900  0.46600  0.23700  1.0000
  O   O3        1.0  0.11800  0.03400  0.26300  1.0000
  O   O4        1.0  0.68400  0.64500  0.44900  1.0000
  O   O5        1.0  0.31600  0.35500  0.55100  1.0000
  O   O6        1.0  0.88200  0.96600  0.73700  1.0000
  O   O7        1.0  0.11100  0.53400  0.76300  1.0000
  O   O8        1.0  0.12000  0.14500  0.94900  1.0000
