data_image0
_chemical_formula_structural       As8Na8O16
_chemical_formula_sum              "As8 Na8 O16"
_cell_length_a       13.9769
_cell_length_b       6.77455
_cell_length_c       5.08224
_cell_angle_alpha    90
_cell_angle_beta     90
_cell_angle_gamma    90

_space_group_name_H-M_alt    "P 1"
_space_group_IT_number       1

loop_
  _space_group_symop_operation_xyz
  'x, y, z'

loop_
  _atom_site_type_symbol
  _atom_site_label
  _atom_site_symmetry_multiplicity
  _atom_site_fract_x
  _atom_site_fract_y
  _atom_site_fract_z
  _atom_site_occupancy
  As  As1       1.0  0.07210  0.10000  0.24600  1.0000
  As  As2       1.0  0.42800  0.60000  0.24600  1.0000
  As  As3       1.0  0.57200  0.10000  0.25400  1.0000
  As  As4       1.0  0.92800  0.60000  0.25400  1.0000
  As  As5       1.0  0.07210  0.40000  0.74600  1.0000
  As  As6       1.0  0.42800  0.90000  0.74600  1.0000
  As  As7       1.0  0.57200  0.40000  0.75400  1.0000
  As  As8       1.0  0.92800  0.90000  0.75400  1.0000
  Na  Na1       1.0  0.80600  0.09820  0.24200  1.0000
  Na  Na2       1.0  0.69400  0.59800  0.24200  1.0000
  Na  Na3       1.0  0.30600  0.09820  0.25800  1.0000
  Na  Na4       1.0  0.19400  0.59800  0.25800  1.0000
  Na  Na5       1.0  0.80600  0.40200  0.74200  1.0000
  Na  Na6       1.0  0.69400  0.90200  0.74200  1.0000
  Na  Na7       1.0  0.30600  0.40200  0.75800  1.0000
  Na  Na8       1.0  0.19400  0.90200  0.75800  1.0000
  O   O1        1.0  0.62600  0.30800  0.06330  1.0000
  O   O2        1.0  0.87400  0.80800  0.06330  1.0000
  O   O3        1.0  0.84100  0.42400  0.20100  1.0000
  O   O4        1.0  0.65900  0.92400  0.20100  1.0000
  O   O5        1.0  0.34100  0.42400  0.29900  1.0000
  O   O6        1.0  0.15900  0.92400  0.29900  1.0000
  O   O7        1.0  0.12600  0.30800  0.43700  1.0000
  O   O8        1.0  0.37400  0.80800  0.43700  1.0000
  O   O9        1.0  0.62600  0.19200  0.56300  1.0000
  O   O10       1.0  0.87400  0.69200  0.56300  1.0000
  O   O11       1.0  0.84100  0.07610  0.70100  1.0000
  O   O12       1.0  0.65900  0.57600  0.70100  1.0000
  O   O13       1.0  0.34100  0.07610  0.79900  1.0000
  O   O14       1.0  0.15900  0.57600  0.79900  1.0000
  O   O15       1.0  0.12600  0.19200  0.93700  1.0000
  O   O16       1.0  0.37400  0.69200  0.93700  1.0000
