data_image0
_chemical_formula_structural       Ba2C4H12N2O10S2
_chemical_formula_sum              "Ba2 C4 H12 N2 O10 S2"
_cell_length_a       6.85233
_cell_length_b       6.89012
_cell_length_c       9.19789
_cell_angle_alpha    85.2809
_cell_angle_beta     71.2073
_cell_angle_gamma    66.8175

_space_group_name_H-M_alt    "P 1"
_space_group_IT_number       1

loop_
  _space_group_symop_operation_xyz
  'x, y, z'

loop_
  _atom_site_type_symbol
  _atom_site_label
  _atom_site_symmetry_multiplicity
  _atom_site_fract_x
  _atom_site_fract_y
  _atom_site_fract_z
  _atom_site_occupancy
  Ba  Ba1       1.0  0.80700  0.30800  0.49900  1.0000
  Ba  Ba2       1.0  0.19300  0.69200  0.50100  1.0000
  C   C1        1.0  0.67600  0.97300  0.11500  1.0000
  C   C2        1.0  0.60800  0.89900  0.48300  1.0000
  C   C3        1.0  0.39200  0.10100  0.51700  1.0000
  C   C4        1.0  0.32400  0.02740  0.88500  1.0000
  H   H1        1.0  0.68400  0.54100  0.17700  1.0000
  H   H2        1.0  0.08670  0.94500  0.17800  1.0000
  H   H3        1.0  0.60000  0.35200  0.19300  1.0000
  H   H4        1.0  0.26900  0.01870  0.19500  1.0000
  H   H5        1.0  0.04260  0.56000  0.23000  1.0000
  H   H6        1.0  0.25400  0.35200  0.23400  1.0000
  H   H7        1.0  0.74600  0.64800  0.76600  1.0000
  H   H8        1.0  0.95700  0.44000  0.77000  1.0000
  H   H9        1.0  0.73100  0.98100  0.80500  1.0000
  H   H10       1.0  0.40000  0.64800  0.80700  1.0000
  H   H11       1.0  0.91300  0.05540  0.82200  1.0000
  H   H12       1.0  0.31600  0.45900  0.82300  1.0000
  N   N1        1.0  0.51500  0.13300  0.15200  1.0000
  N   N2        1.0  0.48500  0.86700  0.84800  1.0000
  O   O1        1.0  0.60900  0.46000  0.25100  1.0000
  O   O2        1.0  0.15000  0.97000  0.25300  1.0000
  O   O3        1.0  0.11600  0.46300  0.29900  1.0000
  O   O4        1.0  0.78700  0.92200  0.46900  1.0000
  O   O5        1.0  0.59100  0.72600  0.47000  1.0000
  O   O6        1.0  0.40900  0.27400  0.53000  1.0000
  O   O7        1.0  0.21300  0.07830  0.53100  1.0000
  O   O8        1.0  0.88400  0.53700  0.70100  1.0000
  O   O9        1.0  0.85000  0.03040  0.74700  1.0000
  O   O10       1.0  0.39100  0.54000  0.74900  1.0000
  S   S1        1.0  0.89700  0.75500  0.05630  1.0000
  S   S2        1.0  0.10300  0.24500  0.94400  1.0000
