data_image0
_chemical_formula_structural       Ba2C4H12N4O6S4
_chemical_formula_sum              "Ba2 C4 H12 N4 O6 S4"
_cell_length_a       4.38098
_cell_length_b       8.19912
_cell_length_c       13.2087
_cell_angle_alpha    103.888
_cell_angle_beta     90
_cell_angle_gamma    105.495

_space_group_name_H-M_alt    "P 1"
_space_group_IT_number       1

loop_
  _space_group_symop_operation_xyz
  'x, y, z'

loop_
  _atom_site_type_symbol
  _atom_site_label
  _atom_site_symmetry_multiplicity
  _atom_site_fract_x
  _atom_site_fract_y
  _atom_site_fract_z
  _atom_site_occupancy
  Ba  Ba1       1.0  0.12400  0.24900  0.27300  1.0000
  Ba  Ba2       1.0  0.87600  0.75100  0.72700  1.0000
  C   C1        1.0  0.43300  0.86700  0.14700  1.0000
  C   C2        1.0  0.34100  0.68200  0.49300  1.0000
  C   C3        1.0  0.65900  0.31800  0.50700  1.0000
  C   C4        1.0  0.56700  0.13300  0.85300  1.0000
  H   H1        1.0  0.28700  0.22200  0.02310  1.0000
  H   H2        1.0  0.93500  0.22200  0.02310  1.0000
  H   H3        1.0  0.73100  0.46200  0.13800  1.0000
  H   H4        1.0  0.77200  0.54400  0.25800  1.0000
  H   H5        1.0  0.13800  0.92300  0.38300  1.0000
  H   H6        1.0  0.78500  0.92300  0.38300  1.0000
  H   H7        1.0  0.21500  0.07730  0.61700  1.0000
  H   H8        1.0  0.86200  0.07730  0.61700  1.0000
  H   H9        1.0  0.22800  0.45600  0.74200  1.0000
  H   H10       1.0  0.26900  0.53800  0.86200  1.0000
  H   H11       1.0  0.06520  0.77800  0.97700  1.0000
  H   H12       1.0  0.71300  0.77800  0.97700  1.0000
  N   N1        1.0  0.50800  0.01510  0.19600  1.0000
  N   N2        1.0  0.66400  0.32800  0.41900  1.0000
  N   N3        1.0  0.33600  0.67200  0.58100  1.0000
  N   N4        1.0  0.49200  0.98500  0.80400  1.0000
  O   O1        1.0  0.10000  0.20100  0.06440  1.0000
  O   O2        1.0  0.71600  0.43200  0.20600  1.0000
  O   O3        1.0  0.99900  0.99800  0.37900  1.0000
  O   O4        1.0  0.00101  0.00202  0.62100  1.0000
  O   O5        1.0  0.28400  0.56800  0.79400  1.0000
  O   O6        1.0  0.90000  0.79900  0.93600  1.0000
  S   S1        1.0  0.33200  0.66300  0.07950  1.0000
  S   S2        1.0  0.34700  0.69400  0.37100  1.0000
  S   S3        1.0  0.65300  0.30600  0.62900  1.0000
  S   S4        1.0  0.66800  0.33700  0.92100  1.0000
