data_image0
_chemical_formula_structural       C4H12Li4O12
_chemical_formula_sum              "C4 H12 Li4 O12"
_cell_length_a       6.1369
_cell_length_b       9.78269
_cell_length_c       4.72869
_cell_angle_alpha    90
_cell_angle_beta     90
_cell_angle_gamma    90

_space_group_name_H-M_alt    "P 1"
_space_group_IT_number       1

loop_
  _space_group_symop_operation_xyz
  'x, y, z'

loop_
  _atom_site_type_symbol
  _atom_site_label
  _atom_site_symmetry_multiplicity
  _atom_site_fract_x
  _atom_site_fract_y
  _atom_site_fract_z
  _atom_site_occupancy
  C   C1        1.0  0.38500  0.29800  0.01990  1.0000
  C   C2        1.0  0.11500  0.79800  0.01990  1.0000
  C   C3        1.0  0.88500  0.20200  0.52000  1.0000
  C   C4        1.0  0.61500  0.70200  0.52000  1.0000
  H   H1        1.0  0.98300  0.48300  0.12200  1.0000
  H   H2        1.0  0.51700  0.98300  0.12200  1.0000
  H   H3        1.0  0.39900  0.12800  0.39300  1.0000
  H   H4        1.0  0.10100  0.62800  0.39300  1.0000
  H   H5        1.0  0.83400  0.29300  0.39400  1.0000
  H   H6        1.0  0.66600  0.79300  0.39400  1.0000
  H   H7        1.0  0.48300  0.01690  0.62200  1.0000
  H   H8        1.0  0.01670  0.51700  0.62200  1.0000
  H   H9        1.0  0.89900  0.37200  0.89300  1.0000
  H   H10       1.0  0.60100  0.87200  0.89300  1.0000
  H   H11       1.0  0.33400  0.20700  0.89400  1.0000
  H   H12       1.0  0.16600  0.70700  0.89400  1.0000
  Li  Li1       1.0  0.88200  0.05090  0.00048  1.0000
  Li  Li2       1.0  0.61800  0.55100  0.00048  1.0000
  Li  Li3       1.0  0.38200  0.44900  0.50000  1.0000
  Li  Li4       1.0  0.11800  0.94900  0.50000  1.0000
  O   O1        1.0  0.40500  0.28300  0.28500  1.0000
  O   O2        1.0  0.09550  0.78300  0.28500  1.0000
  O   O3        1.0  0.91700  0.09120  0.39000  1.0000
  O   O4        1.0  0.58300  0.59100  0.39000  1.0000
  O   O5        1.0  0.40100  0.02760  0.44100  1.0000
  O   O6        1.0  0.09910  0.52800  0.44100  1.0000
  O   O7        1.0  0.90500  0.21700  0.78500  1.0000
  O   O8        1.0  0.59500  0.71700  0.78500  1.0000
  O   O9        1.0  0.41700  0.40900  0.89000  1.0000
  O   O10       1.0  0.08330  0.90900  0.89000  1.0000
  O   O11       1.0  0.90100  0.47200  0.94100  1.0000
  O   O12       1.0  0.59900  0.97200  0.94100  1.0000
