data_image0
_chemical_formula_structural       C8H4K4O16
_chemical_formula_sum              "C8 H4 K4 O16"
_cell_length_a       4.13308
_cell_length_b       12.8121
_cell_length_c       7.31035
_cell_angle_alpha    90
_cell_angle_beta     99.2969
_cell_angle_gamma    90

_space_group_name_H-M_alt    "P 1"
_space_group_IT_number       1

loop_
  _space_group_symop_operation_xyz
  'x, y, z'

loop_
  _atom_site_type_symbol
  _atom_site_label
  _atom_site_symmetry_multiplicity
  _atom_site_fract_x
  _atom_site_fract_y
  _atom_site_fract_z
  _atom_site_occupancy
  C   C1        1.0  0.90600  0.32700  0.12600  1.0000
  C   C2        1.0  0.81000  0.84900  0.21200  1.0000
  C   C3        1.0  0.19000  0.34900  0.28800  1.0000
  C   C4        1.0  0.09430  0.82700  0.37400  1.0000
  C   C5        1.0  0.90600  0.17300  0.62600  1.0000
  C   C6        1.0  0.81000  0.65100  0.71200  1.0000
  C   C7        1.0  0.19000  0.15100  0.78800  1.0000
  C   C8        1.0  0.09430  0.67300  0.87400  1.0000
  H   H1        1.0  0.36900  0.77700  0.02280  1.0000
  H   H2        1.0  0.63100  0.27700  0.47700  1.0000
  H   H3        1.0  0.36900  0.72300  0.52300  1.0000
  H   H4        1.0  0.63100  0.22300  0.97700  1.0000
  K   K1        1.0  0.30600  0.07000  0.23500  1.0000
  K   K2        1.0  0.69400  0.57000  0.26500  1.0000
  K   K3        1.0  0.30600  0.43000  0.73500  1.0000
  K   K4        1.0  0.69400  0.93000  0.76500  1.0000
  O   O1        1.0  0.75400  0.40100  0.04390  1.0000
  O   O2        1.0  0.84600  0.22800  0.08950  1.0000
  O   O3        1.0  0.78500  0.93900  0.14700  1.0000
  O   O4        1.0  0.62500  0.77100  0.16200  1.0000
  O   O5        1.0  0.37500  0.27100  0.33800  1.0000
  O   O6        1.0  0.21500  0.43900  0.35300  1.0000
  O   O7        1.0  0.15400  0.72800  0.41100  1.0000
  O   O8        1.0  0.24600  0.90100  0.45600  1.0000
  O   O9        1.0  0.75400  0.09930  0.54400  1.0000
  O   O10       1.0  0.84600  0.27200  0.58900  1.0000
  O   O11       1.0  0.78500  0.56100  0.64700  1.0000
  O   O12       1.0  0.62500  0.72900  0.66200  1.0000
  O   O13       1.0  0.37500  0.22900  0.83800  1.0000
  O   O14       1.0  0.21500  0.06100  0.85300  1.0000
  O   O15       1.0  0.15400  0.77200  0.91100  1.0000
  O   O16       1.0  0.24600  0.59900  0.95600  1.0000
