data_image0
_chemical_formula_structural       Cl24N2P4Ta2
_chemical_formula_sum              "Cl24 N2 P4 Ta2"
_cell_length_a       8.22136
_cell_length_b       8.22136
_cell_length_c       15.6797
_cell_angle_alpha    101.518
_cell_angle_beta     101.518
_cell_angle_gamma    65.4117

_space_group_name_H-M_alt    "P 1"
_space_group_IT_number       1

loop_
  _space_group_symop_operation_xyz
  'x, y, z'

loop_
  _atom_site_type_symbol
  _atom_site_label
  _atom_site_symmetry_multiplicity
  _atom_site_fract_x
  _atom_site_fract_y
  _atom_site_fract_z
  _atom_site_occupancy
  Cl  Cl1       1.0  0.77800  0.29900  0.00797  1.0000
  Cl  Cl2       1.0  0.78500  0.89700  0.02650  1.0000
  Cl  Cl3       1.0  0.09330  0.51600  0.14700  1.0000
  Cl  Cl4       1.0  0.08790  0.04690  0.15300  1.0000
  Cl  Cl5       1.0  0.59900  0.72900  0.16400  1.0000
  Cl  Cl6       1.0  0.50200  0.23500  0.17600  1.0000
  Cl  Cl7       1.0  0.76500  0.49800  0.32400  1.0000
  Cl  Cl8       1.0  0.27100  0.40100  0.33600  1.0000
  Cl  Cl9       1.0  0.95300  0.91200  0.34700  1.0000
  Cl  Cl10      1.0  0.48400  0.90700  0.35300  1.0000
  Cl  Cl11      1.0  0.10300  0.21500  0.47300  1.0000
  Cl  Cl12      1.0  0.70100  0.22200  0.49200  1.0000
  Cl  Cl13      1.0  0.29900  0.77800  0.50800  1.0000
  Cl  Cl14      1.0  0.89700  0.78500  0.52700  1.0000
  Cl  Cl15      1.0  0.51600  0.09330  0.64700  1.0000
  Cl  Cl16      1.0  0.04690  0.08790  0.65300  1.0000
  Cl  Cl17      1.0  0.72900  0.59900  0.66400  1.0000
  Cl  Cl18      1.0  0.23500  0.50200  0.67600  1.0000
  Cl  Cl19      1.0  0.49800  0.76500  0.82400  1.0000
  Cl  Cl20      1.0  0.40100  0.27100  0.83600  1.0000
  Cl  Cl21      1.0  0.91200  0.95300  0.84700  1.0000
  Cl  Cl22      1.0  0.90700  0.48400  0.85300  1.0000
  Cl  Cl23      1.0  0.21500  0.10300  0.97300  1.0000
  Cl  Cl24      1.0  0.22200  0.70100  0.99200  1.0000
  N   N1        1.0  0.37600  0.62400  0.25000  1.0000
  N   N2        1.0  0.62400  0.37600  0.75000  1.0000
  P   P1        1.0  0.31900  0.46000  0.22900  1.0000
  P   P2        1.0  0.54000  0.68100  0.27100  1.0000
  P   P3        1.0  0.46000  0.31900  0.72900  1.0000
  P   P4        1.0  0.68100  0.54000  0.77100  1.0000
  Ta  Ta1       1.0  0.00000  0.00000  0.00000  1.0000
  Ta  Ta2       1.0  0.00000  0.00000  0.50000  1.0000
