data_image0
_chemical_formula_structural       As2Ga2O5
_chemical_formula_sum              "As2 Ga2 O5"
_cell_length_a       6.68644
_cell_length_b       4.01044
_cell_length_c       4.01044
_cell_angle_alpha    90
_cell_angle_beta     90
_cell_angle_gamma    90

_space_group_name_H-M_alt    "P 1"
_space_group_IT_number       1

loop_
  _space_group_symop_operation_xyz
  'x, y, z'

loop_
  _atom_site_type_symbol
  _atom_site_label
  _atom_site_symmetry_multiplicity
  _atom_site_fract_x
  _atom_site_fract_y
  _atom_site_fract_z
  _atom_site_occupancy
  As  As1       1.0  0.22100  0.50000  0.50000  1.0000
  As  As2       1.0  0.77900  0.50000  0.50000  1.0000
  Ga  Ga1       1.0  0.00000  0.00000  0.00000  1.0000
  Ga  Ga2       1.0  0.50000  0.00000  0.00000  1.0000
  O   O1        1.0  0.19700  0.50000  0.00000  1.0000
  O   O2        1.0  0.80300  0.50000  0.00000  1.0000
  O   O3        1.0  0.19700  0.00000  0.50000  1.0000
  O   O4        1.0  0.80300  0.00000  0.50000  1.0000
  O   O5        1.0  0.50000  0.50000  0.50000  1.0000
