data_image0
_chemical_formula_structural       Be2O5Sb2
_chemical_formula_sum              "Be2 O5 Sb2"
_cell_length_a       6.90193
_cell_length_b       3.61935
_cell_length_c       3.61935
_cell_angle_alpha    90
_cell_angle_beta     90
_cell_angle_gamma    90

_space_group_name_H-M_alt    "P 1"
_space_group_IT_number       1

loop_
  _space_group_symop_operation_xyz
  'x, y, z'

loop_
  _atom_site_type_symbol
  _atom_site_label
  _atom_site_symmetry_multiplicity
  _atom_site_fract_x
  _atom_site_fract_y
  _atom_site_fract_z
  _atom_site_occupancy
  Be  Be1       1.0  0.27100  0.50000  0.50000  1.0000
  Be  Be2       1.0  0.72900  0.50000  0.50000  1.0000
  O   O1        1.0  0.22000  0.50000  0.00000  1.0000
  O   O2        1.0  0.78000  0.50000  0.00000  1.0000
  O   O3        1.0  0.22000  0.00000  0.50000  1.0000
  O   O4        1.0  0.78000  0.00000  0.50000  1.0000
  O   O5        1.0  0.50000  0.50000  0.50000  1.0000
  Sb  Sb1       1.0  0.00000  0.00000  0.00000  1.0000
  Sb  Sb2       1.0  0.50000  0.00000  0.00000  1.0000
