data_image0
_chemical_formula_structural       Dy2Ge2O5
_chemical_formula_sum              "Dy2 Ge2 O5"
_cell_length_a       6.60841
_cell_length_b       4.05398
_cell_length_c       4.05398
_cell_angle_alpha    90
_cell_angle_beta     90
_cell_angle_gamma    90

_space_group_name_H-M_alt    "P 1"
_space_group_IT_number       1

loop_
  _space_group_symop_operation_xyz
  'x, y, z'

loop_
  _atom_site_type_symbol
  _atom_site_label
  _atom_site_symmetry_multiplicity
  _atom_site_fract_x
  _atom_site_fract_y
  _atom_site_fract_z
  _atom_site_occupancy
  Dy  Dy1       1.0  0.00000  0.00000  0.00000  1.0000
  Dy  Dy2       1.0  0.50000  0.00000  0.00000  1.0000
  Ge  Ge1       1.0  0.21300  0.50000  0.50000  1.0000
  Ge  Ge2       1.0  0.78700  0.50000  0.50000  1.0000
  O   O1        1.0  0.23300  0.50000  0.00000  1.0000
  O   O2        1.0  0.76700  0.50000  0.00000  1.0000
  O   O3        1.0  0.23300  0.00000  0.50000  1.0000
  O   O4        1.0  0.76700  0.00000  0.50000  1.0000
  O   O5        1.0  0.50000  0.50000  0.50000  1.0000
