data_image0
_chemical_formula_structural       Mo2O5Re2
_chemical_formula_sum              "Mo2 O5 Re2"
_cell_length_a       6.88737
_cell_length_b       3.72166
_cell_length_c       3.72166
_cell_angle_alpha    90
_cell_angle_beta     90
_cell_angle_gamma    90

_space_group_name_H-M_alt    "P 1"
_space_group_IT_number       1

loop_
  _space_group_symop_operation_xyz
  'x, y, z'

loop_
  _atom_site_type_symbol
  _atom_site_label
  _atom_site_symmetry_multiplicity
  _atom_site_fract_x
  _atom_site_fract_y
  _atom_site_fract_z
  _atom_site_occupancy
  Mo  Mo1       1.0  0.00000  0.00000  0.00000  1.0000
  Mo  Mo2       1.0  0.50000  0.00000  0.00000  1.0000
  O   O1        1.0  0.29800  0.50000  0.00000  1.0000
  O   O2        1.0  0.70200  0.50000  0.00000  1.0000
  O   O3        1.0  0.29800  0.00000  0.50000  1.0000
  O   O4        1.0  0.70200  0.00000  0.50000  1.0000
  O   O5        1.0  0.50000  0.50000  0.50000  1.0000
  Re  Re1       1.0  0.18600  0.50000  0.50000  1.0000
  Re  Re2       1.0  0.81400  0.50000  0.50000  1.0000
