data_image0
_chemical_formula_structural       KO2Tl
_chemical_formula_sum              "K1 O2 Tl1"
_cell_length_a       3.46447
_cell_length_b       3.46447
_cell_length_c       6.37429
_cell_angle_alpha    105.769
_cell_angle_beta     90
_cell_angle_gamma    60

_space_group_name_H-M_alt    "P 1"
_space_group_IT_number       1

loop_
  _space_group_symop_operation_xyz
  'x, y, z'

loop_
  _atom_site_type_symbol
  _atom_site_label
  _atom_site_symmetry_multiplicity
  _atom_site_fract_x
  _atom_site_fract_y
  _atom_site_fract_z
  _atom_site_occupancy
  K   K1        1.0  0.50000  0.00000  0.50000  1.0000
  O   O1        1.0  0.26700  0.46600  0.20000  1.0000
  O   O2        1.0  0.73300  0.53400  0.80000  1.0000
  Tl  Tl1       1.0  0.00000  0.00000  0.00000  1.0000
