data_image0
_chemical_formula_structural       LiO6Zr2
_chemical_formula_sum              "Li1 O6 Zr2"
_cell_length_a       5.92146
_cell_length_b       5.92146
_cell_length_c       3.63729
_cell_angle_alpha    104.472
_cell_angle_beta     104.472
_cell_angle_gamma    119.01

_space_group_name_H-M_alt    "P 1"
_space_group_IT_number       1

loop_
  _space_group_symop_operation_xyz
  'x, y, z'

loop_
  _atom_site_type_symbol
  _atom_site_label
  _atom_site_symmetry_multiplicity
  _atom_site_fract_x
  _atom_site_fract_y
  _atom_site_fract_z
  _atom_site_occupancy
  Li  Li1       1.0  0.50000  0.50000  0.00000  1.0000
  O   O1        1.0  0.24800  0.24800  0.15700  1.0000
  O   O2        1.0  0.92500  0.58600  0.29900  1.0000
  O   O3        1.0  0.58600  0.92500  0.29900  1.0000
  O   O4        1.0  0.41400  0.07450  0.70100  1.0000
  O   O5        1.0  0.07450  0.41400  0.70100  1.0000
  O   O6        1.0  0.75200  0.75200  0.84300  1.0000
  Zr  Zr1       1.0  0.83900  0.16100  0.00000  1.0000
  Zr  Zr2       1.0  0.16100  0.83900  0.00000  1.0000
