data_image0
_chemical_formula_structural       C6H4Na4Np2O18
_chemical_formula_sum              "C6 H4 Na4 Np2 O18"
_cell_length_a       6.46107
_cell_length_b       8.28867
_cell_length_c       8.47591
_cell_angle_alpha    77.8756
_cell_angle_beta     71.966
_cell_angle_gamma    70.6178

_space_group_name_H-M_alt    "P 1"
_space_group_IT_number       1

loop_
  _space_group_symop_operation_xyz
  'x, y, z'

loop_
  _atom_site_type_symbol
  _atom_site_label
  _atom_site_symmetry_multiplicity
  _atom_site_fract_x
  _atom_site_fract_y
  _atom_site_fract_z
  _atom_site_occupancy
  C   C1        1.0  0.91100  0.55500  0.06790  1.0000
  C   C2        1.0  0.29500  0.77100  0.15300  1.0000
  C   C3        1.0  0.21400  0.72800  0.34500  1.0000
  C   C4        1.0  0.78600  0.27200  0.65500  1.0000
  C   C5        1.0  0.70500  0.22900  0.84700  1.0000
  C   C6        1.0  0.08850  0.44500  0.93200  1.0000
  H   H1        1.0  0.71100  0.63800  0.40500  1.0000
  H   H2        1.0  0.33200  0.21000  0.49500  1.0000
  H   H3        1.0  0.66800  0.79000  0.50500  1.0000
  H   H4        1.0  0.28900  0.36200  0.59500  1.0000
  Na  Na1       1.0  0.62600  0.95500  0.18000  1.0000
  Na  Na2       1.0  0.49600  0.38800  0.21600  1.0000
  Na  Na3       1.0  0.50400  0.61200  0.78400  1.0000
  Na  Na4       1.0  0.37400  0.04530  0.82000  1.0000
  Np  Np1       1.0  0.03760  0.16000  0.27300  1.0000
  Np  Np2       1.0  0.96200  0.84000  0.72700  1.0000
  O   O1        1.0  0.84400  0.71500  0.02690  1.0000
  O   O2        1.0  0.36500  0.65200  0.06490  1.0000
  O   O3        1.0  0.28500  0.93000  0.10000  1.0000
  O   O4        1.0  0.84600  0.47400  0.21000  1.0000
  O   O5        1.0  0.78300  0.13100  0.24500  1.0000
  O   O6        1.0  0.29700  0.18600  0.30000  1.0000
  O   O7        1.0  0.63800  0.76200  0.40900  1.0000
  O   O8        1.0  0.24600  0.57700  0.41000  1.0000
  O   O9        1.0  0.11400  0.86200  0.42300  1.0000
  O   O10       1.0  0.88600  0.13800  0.57700  1.0000
  O   O11       1.0  0.75400  0.42300  0.59000  1.0000
  O   O12       1.0  0.36200  0.23800  0.59100  1.0000
  O   O13       1.0  0.70300  0.81400  0.70000  1.0000
  O   O14       1.0  0.21700  0.86900  0.75500  1.0000
  O   O15       1.0  0.15400  0.52600  0.79000  1.0000
  O   O16       1.0  0.71500  0.07000  0.90000  1.0000
  O   O17       1.0  0.63500  0.34800  0.93500  1.0000
  O   O18       1.0  0.15600  0.28500  0.97300  1.0000
