data_image0
_chemical_formula_structural       C4H10N6Na2O8P2S2
_chemical_formula_sum              "C4 H10 N6 Na2 O8 P2 S2"
_cell_length_a       5.7598
_cell_length_b       6.78082
_cell_length_c       9.74988
_cell_angle_alpha    87.4453
_cell_angle_beta     81.3026
_cell_angle_gamma    74.5374

_space_group_name_H-M_alt    "P 1"
_space_group_IT_number       1

loop_
  _space_group_symop_operation_xyz
  'x, y, z'

loop_
  _atom_site_type_symbol
  _atom_site_label
  _atom_site_symmetry_multiplicity
  _atom_site_fract_x
  _atom_site_fract_y
  _atom_site_fract_z
  _atom_site_occupancy
  C   C1        1.0  0.77100  0.00682  0.34700  1.0000
  C   C2        1.0  0.81800  0.29000  0.48200  1.0000
  C   C3        1.0  0.18200  0.71000  0.51800  1.0000
  C   C4        1.0  0.22900  0.99300  0.65300  1.0000
  H   H1        1.0  0.82000  0.33200  0.00343  1.0000
  H   H2        1.0  0.09230  0.59600  0.14100  1.0000
  H   H3        1.0  0.02130  0.91000  0.17400  1.0000
  H   H4        1.0  0.10300  0.41800  0.40900  1.0000
  H   H5        1.0  0.45100  0.86000  0.47400  1.0000
  H   H6        1.0  0.54900  0.14000  0.52600  1.0000
  H   H7        1.0  0.89700  0.58200  0.59100  1.0000
  H   H8        1.0  0.97900  0.09030  0.82600  1.0000
  H   H9        1.0  0.90800  0.40400  0.85900  1.0000
  H   H10       1.0  0.18000  0.66800  0.99700  1.0000
  N   N1        1.0  0.94300  0.03350  0.24300  1.0000
  N   N2        1.0  0.01290  0.30900  0.39000  1.0000
  N   N3        1.0  0.69900  0.14900  0.45200  1.0000
  N   N4        1.0  0.30100  0.85100  0.54800  1.0000
  N   N5        1.0  0.98700  0.69100  0.61000  1.0000
  N   N6        1.0  0.05660  0.96600  0.75700  1.0000
  Na  Na1       1.0  0.53000  0.69200  0.18900  1.0000
  Na  Na2       1.0  0.47000  0.30800  0.81100  1.0000
  O   O1        1.0  0.17800  0.69600  0.09700  1.0000
  O   O2        1.0  0.86200  0.41600  0.15400  1.0000
  O   O3        1.0  0.68200  0.85600  0.35100  1.0000
  O   O4        1.0  0.25400  0.61100  0.40700  1.0000
  O   O5        1.0  0.74600  0.38900  0.59300  1.0000
  O   O6        1.0  0.31800  0.14400  0.64900  1.0000
  O   O7        1.0  0.13800  0.58400  0.84600  1.0000
  O   O8        1.0  0.82200  0.30400  0.90300  1.0000
  P   P1        1.0  0.04480  0.24600  0.21900  1.0000
  P   P2        1.0  0.95500  0.75400  0.78100  1.0000
  S   S1        1.0  0.38000  0.17700  0.12900  1.0000
  S   S2        1.0  0.62000  0.82300  0.87100  1.0000
