data_image0
_chemical_formula_structural       C4H10K2N6O8P2S2
_chemical_formula_sum              "C4 H10 K2 N6 O8 P2 S2"
_cell_length_a       5.91904
_cell_length_b       6.69906
_cell_length_c       10.4175
_cell_angle_alpha    86.9319
_cell_angle_beta     77.7695
_cell_angle_gamma    76.0606

_space_group_name_H-M_alt    "P 1"
_space_group_IT_number       1

loop_
  _space_group_symop_operation_xyz
  'x, y, z'

loop_
  _atom_site_type_symbol
  _atom_site_label
  _atom_site_symmetry_multiplicity
  _atom_site_fract_x
  _atom_site_fract_y
  _atom_site_fract_z
  _atom_site_occupancy
  C   C1        1.0  0.67100  0.21000  0.02310  1.0000
  C   C2        1.0  0.71700  0.49800  0.14600  1.0000
  C   C3        1.0  0.28300  0.50200  0.85400  1.0000
  C   C4        1.0  0.32900  0.79000  0.97700  1.0000
  H   H1        1.0  0.05930  0.63700  0.02490  1.0000
  H   H2        1.0  0.39200  0.07520  0.09600  1.0000
  H   H3        1.0  0.48700  0.59000  0.32000  1.0000
  H   H4        1.0  0.46000  0.90400  0.38100  1.0000
  H   H5        1.0  0.61700  0.20100  0.48700  1.0000
  H   H6        1.0  0.38300  0.79900  0.51300  1.0000
  H   H7        1.0  0.54000  0.09560  0.61900  1.0000
  H   H8        1.0  0.51300  0.41000  0.68000  1.0000
  H   H9        1.0  0.60800  0.92500  0.90400  1.0000
  H   H10       1.0  0.94100  0.36300  0.97500  1.0000
  K   K1        1.0  0.98600  0.81900  0.32400  1.0000
  K   K2        1.0  0.01370  0.18100  0.67600  1.0000
  N   N1        1.0  0.78900  0.35400  0.04690  1.0000
  N   N2        1.0  0.47900  0.18800  0.11400  1.0000
  N   N3        1.0  0.53500  0.47700  0.24600  1.0000
  N   N4        1.0  0.46500  0.52300  0.75400  1.0000
  N   N5        1.0  0.52100  0.81200  0.88600  1.0000
  N   N6        1.0  0.21100  0.64600  0.95300  1.0000
  O   O1        1.0  0.25700  0.88800  0.08270  1.0000
  O   O2        1.0  0.81600  0.64400  0.14200  1.0000
  O   O3        1.0  0.59500  0.10400  0.34200  1.0000
  O   O4        1.0  0.38800  0.78800  0.41800  1.0000
  O   O5        1.0  0.61200  0.21200  0.58200  1.0000
  O   O6        1.0  0.40500  0.89600  0.65800  1.0000
  O   O7        1.0  0.18400  0.35600  0.85800  1.0000
  O   O8        1.0  0.74300  0.11200  0.91700  1.0000
  P   P1        1.0  0.42900  0.26200  0.27300  1.0000
  P   P2        1.0  0.57100  0.73800  0.72700  1.0000
  S   S1        1.0  0.09250  0.31800  0.35600  1.0000
  S   S2        1.0  0.90700  0.68200  0.64400  1.0000
