data_image0
_chemical_formula_structural       C10H14N8NiO2
_chemical_formula_sum              "C10 H14 N8 Ni1 O2"
_cell_length_a       7.26729
_cell_length_b       7.52167
_cell_length_c       7.95933
_cell_angle_alpha    109.254
_cell_angle_beta     90
_cell_angle_gamma    118.887

_space_group_name_H-M_alt    "P 1"
_space_group_IT_number       1

loop_
  _space_group_symop_operation_xyz
  'x, y, z'

loop_
  _atom_site_type_symbol
  _atom_site_label
  _atom_site_symmetry_multiplicity
  _atom_site_fract_x
  _atom_site_fract_y
  _atom_site_fract_z
  _atom_site_occupancy
  C   C1        1.0  0.35700  0.71500  0.09490  1.0000
  C   C2        1.0  0.18400  0.36900  0.15100  1.0000
  C   C3        1.0  0.82000  0.63900  0.15600  1.0000
  C   C4        1.0  0.46100  0.23100  0.42000  1.0000
  C   C5        1.0  0.77000  0.23100  0.42000  1.0000
  C   C6        1.0  0.23000  0.76900  0.58000  1.0000
  C   C7        1.0  0.53900  0.76900  0.58000  1.0000
  C   C8        1.0  0.18000  0.36100  0.84400  1.0000
  C   C9        1.0  0.81600  0.63100  0.84900  1.0000
  C   C10       1.0  0.64300  0.28500  0.90500  1.0000
  H   H1        1.0  0.61300  0.22600  0.01660  1.0000
  H   H2        1.0  0.09550  0.19100  0.07780  1.0000
  H   H3        1.0  0.26600  0.77700  0.17900  1.0000
  H   H4        1.0  0.51100  0.77700  0.17900  1.0000
  H   H5        1.0  0.08650  0.41800  0.23700  1.0000
  H   H6        1.0  0.33100  0.41800  0.23700  1.0000
  H   H7        1.0  0.77100  0.54200  0.24300  1.0000
  H   H8        1.0  0.22900  0.45800  0.75700  1.0000
  H   H9        1.0  0.66900  0.58200  0.76300  1.0000
  H   H10       1.0  0.91400  0.58200  0.76300  1.0000
  H   H11       1.0  0.48900  0.22300  0.82100  1.0000
  H   H12       1.0  0.73400  0.22300  0.82100  1.0000
  H   H13       1.0  0.90400  0.80900  0.92200  1.0000
  H   H14       1.0  0.38700  0.77400  0.98300  1.0000
  N   N1        1.0  0.23800  0.47700  0.02190  1.0000
  N   N2        1.0  0.63100  0.26200  0.35200  1.0000
  N   N3        1.0  0.30400  0.20700  0.47600  1.0000
  N   N4        1.0  0.90400  0.20700  0.47600  1.0000
  N   N5        1.0  0.09640  0.79300  0.52400  1.0000
  N   N6        1.0  0.69600  0.79300  0.52400  1.0000
  N   N7        1.0  0.36900  0.73800  0.64800  1.0000
  N   N8        1.0  0.76200  0.52300  0.97800  1.0000
  Ni  Ni1       1.0  0.00000  0.00000  0.50000  1.0000
  O   O1        1.0  0.92300  0.84500  0.22300  1.0000
  O   O2        1.0  0.07730  0.15500  0.77700  1.0000
