data_image0
_chemical_formula_structural       Al8ErFe4
_chemical_formula_sum              "Al8 Er1 Fe4"
_cell_length_a       5.01085
_cell_length_b       6.62236
_cell_length_c       6.62236
_cell_angle_alpha    98.2291
_cell_angle_beta     67.7698
_cell_angle_gamma    112.23

_space_group_name_H-M_alt    "P 1"
_space_group_IT_number       1

loop_
  _space_group_symop_operation_xyz
  'x, y, z'

loop_
  _atom_site_type_symbol
  _atom_site_label
  _atom_site_symmetry_multiplicity
  _atom_site_fract_x
  _atom_site_fract_y
  _atom_site_fract_z
  _atom_site_occupancy
  Al  Al1       1.0  0.27900  0.77900  0.22100  1.0000
  Al  Al2       1.0  0.50000  0.22100  0.22100  1.0000
  Al  Al3       1.0  0.00000  0.34000  0.34000  1.0000
  Al  Al4       1.0  0.66000  0.66000  0.34000  1.0000
  Al  Al5       1.0  0.34000  0.34000  0.66000  1.0000
  Al  Al6       1.0  0.00000  0.66000  0.66000  1.0000
  Al  Al7       1.0  0.72100  0.22100  0.77900  1.0000
  Al  Al8       1.0  0.50000  0.77900  0.77900  1.0000
  Er  Er1       1.0  0.00000  0.00000  0.00000  1.0000
  Fe  Fe1       1.0  0.00000  0.50000  0.00000  1.0000
  Fe  Fe2       1.0  0.50000  0.50000  0.00000  1.0000
  Fe  Fe3       1.0  0.00000  0.00000  0.50000  1.0000
  Fe  Fe4       1.0  0.50000  0.00000  0.50000  1.0000
