data_image0
_chemical_formula_structural       C6H12N6NiO10
_chemical_formula_sum              "C6 H12 N6 Ni1 O10"
_cell_length_a       6.00741
_cell_length_b       6.00741
_cell_length_c       10.8744
_cell_angle_alpha    103.99
_cell_angle_beta     103.99
_cell_angle_gamma    97.1674

_space_group_name_H-M_alt    "P 1"
_space_group_IT_number       1

loop_
  _space_group_symop_operation_xyz
  'x, y, z'

loop_
  _atom_site_type_symbol
  _atom_site_label
  _atom_site_symmetry_multiplicity
  _atom_site_fract_x
  _atom_site_fract_y
  _atom_site_fract_z
  _atom_site_occupancy
  C   C1        1.0  0.27900  0.03220  0.31100  1.0000
  C   C2        1.0  0.03220  0.27900  0.31100  1.0000
  C   C3        1.0  0.67100  0.67100  0.34200  1.0000
  C   C4        1.0  0.32900  0.32900  0.65800  1.0000
  C   C5        1.0  0.96800  0.72100  0.68900  1.0000
  C   C6        1.0  0.72100  0.96800  0.68900  1.0000
  H   H1        1.0  0.60600  0.03430  0.19000  1.0000
  H   H2        1.0  0.58400  0.15600  0.19000  1.0000
  H   H3        1.0  0.15600  0.58400  0.19000  1.0000
  H   H4        1.0  0.03430  0.60600  0.19000  1.0000
  H   H5        1.0  0.97100  0.23200  0.20300  1.0000
  H   H6        1.0  0.23200  0.97100  0.20300  1.0000
  H   H7        1.0  0.76800  0.02930  0.79700  1.0000
  H   H8        1.0  0.02930  0.76800  0.79700  1.0000
  H   H9        1.0  0.96600  0.39400  0.81000  1.0000
  H   H10       1.0  0.84400  0.41600  0.81000  1.0000
  H   H11       1.0  0.41600  0.84400  0.81000  1.0000
  H   H12       1.0  0.39400  0.96600  0.81000  1.0000
  N   N1        1.0  0.77200  0.51600  0.28800  1.0000
  N   N2        1.0  0.51600  0.77200  0.28800  1.0000
  N   N3        1.0  0.19000  0.19000  0.38100  1.0000
  N   N4        1.0  0.81000  0.81000  0.61900  1.0000
  N   N5        1.0  0.48400  0.22800  0.71200  1.0000
  N   N6        1.0  0.22800  0.48400  0.71200  1.0000
  Ni  Ni1       1.0  0.00000  0.00000  0.00000  1.0000
  O   O1        1.0  0.28100  0.12800  0.00000  1.0000
  O   O2        1.0  0.12800  0.28100  0.00000  1.0000
  O   O3        1.0  0.87200  0.71900  0.00000  1.0000
  O   O4        1.0  0.71900  0.87200  0.00000  1.0000
  O   O5        1.0  0.53000  0.53000  0.06060  1.0000
  O   O6        1.0  0.94000  0.43700  0.37600  1.0000
  O   O7        1.0  0.43700  0.94000  0.37600  1.0000
  O   O8        1.0  0.56300  0.06010  0.62400  1.0000
  O   O9        1.0  0.06010  0.56300  0.62400  1.0000
  O   O10       1.0  0.47000  0.47000  0.93900  1.0000
