data_image0
_chemical_formula_structural       C4H12K4N8O4S4
_chemical_formula_sum              "C4 H12 K4 N8 O4 S4"
_cell_length_a       4.5167
_cell_length_b       9.54599
_cell_length_c       10.6044
_cell_angle_alpha    90
_cell_angle_beta     87.9669
_cell_angle_gamma    90

_space_group_name_H-M_alt    "P 1"
_space_group_IT_number       1

loop_
  _space_group_symop_operation_xyz
  'x, y, z'

loop_
  _atom_site_type_symbol
  _atom_site_label
  _atom_site_symmetry_multiplicity
  _atom_site_fract_x
  _atom_site_fract_y
  _atom_site_fract_z
  _atom_site_occupancy
  C   C1        1.0  0.82100  0.97800  0.23300  1.0000
  C   C2        1.0  0.17900  0.47800  0.26700  1.0000
  C   C3        1.0  0.82100  0.52200  0.73300  1.0000
  C   C4        1.0  0.17900  0.02220  0.76700  1.0000
  H   H1        1.0  0.16800  0.44400  0.08570  1.0000
  H   H2        1.0  0.61500  0.30300  0.19200  1.0000
  H   H3        1.0  0.75800  0.25900  0.20300  1.0000
  H   H4        1.0  0.24200  0.75900  0.29700  1.0000
  H   H5        1.0  0.38500  0.80300  0.30800  1.0000
  H   H6        1.0  0.83200  0.94400  0.41400  1.0000
  H   H7        1.0  0.16800  0.05560  0.58600  1.0000
  H   H8        1.0  0.61500  0.19700  0.69200  1.0000
  H   H9        1.0  0.75800  0.24100  0.70300  1.0000
  H   H10       1.0  0.24200  0.74100  0.79700  1.0000
  H   H11       1.0  0.38500  0.69700  0.80800  1.0000
  H   H12       1.0  0.83200  0.55600  0.91400  1.0000
  K   K1        1.0  0.29900  0.80100  0.03790  1.0000
  K   K2        1.0  0.70100  0.30100  0.46200  1.0000
  K   K3        1.0  0.29900  0.69900  0.53800  1.0000
  K   K4        1.0  0.70100  0.19900  0.96200  1.0000
  N   N1        1.0  0.76800  0.62900  0.12000  1.0000
  N   N2        1.0  0.27700  0.41600  0.16600  1.0000
  N   N3        1.0  0.72300  0.91600  0.33400  1.0000
  N   N4        1.0  0.23200  0.12900  0.38000  1.0000
  N   N5        1.0  0.76800  0.87100  0.62000  1.0000
  N   N6        1.0  0.27700  0.08360  0.66600  1.0000
  N   N7        1.0  0.72300  0.58400  0.83400  1.0000
  N   N8        1.0  0.23200  0.37100  0.88000  1.0000
  O   O1        1.0  0.74000  0.96900  0.11900  1.0000
  O   O2        1.0  0.26000  0.46900  0.38100  1.0000
  O   O3        1.0  0.74000  0.53100  0.61900  1.0000
  O   O4        1.0  0.26000  0.03120  0.88100  1.0000
  S   S1        1.0  0.14900  0.10800  0.24500  1.0000
  S   S2        1.0  0.85100  0.60800  0.25500  1.0000
  S   S3        1.0  0.14900  0.39200  0.74500  1.0000
  S   S4        1.0  0.85100  0.89200  0.75500  1.0000
