data_image0
_chemical_formula_structural       BBr20K8Zr6
_chemical_formula_sum              "B1 Br20 K8 Zr6"
_cell_length_a       11.712
_cell_length_b       11.712
_cell_length_c       11.712
_cell_angle_alpha    120
_cell_angle_beta     90
_cell_angle_gamma    120

_space_group_name_H-M_alt    "P 1"
_space_group_IT_number       1

loop_
  _space_group_symop_operation_xyz
  'x, y, z'

loop_
  _atom_site_type_symbol
  _atom_site_label
  _atom_site_symmetry_multiplicity
  _atom_site_fract_x
  _atom_site_fract_y
  _atom_site_fract_z
  _atom_site_occupancy
  B   B1        1.0  0.00000  0.00000  0.00000  1.0000
  Br  Br1       1.0  0.32800  0.00000  0.00000  1.0000
  Br  Br2       1.0  0.67200  0.00000  0.00000  1.0000
  Br  Br3       1.0  0.00000  0.32800  0.00000  1.0000
  Br  Br4       1.0  0.32800  0.32800  0.00000  1.0000
  Br  Br5       1.0  0.00000  0.67200  0.00000  1.0000
  Br  Br6       1.0  0.67200  0.67200  0.00000  1.0000
  Br  Br7       1.0  0.75000  0.50000  0.25000  1.0000
  Br  Br8       1.0  0.31700  0.00000  0.31700  1.0000
  Br  Br9       1.0  0.31700  0.63400  0.31700  1.0000
  Br  Br10      1.0  0.68300  0.00000  0.31700  1.0000
  Br  Br11      1.0  0.00000  0.00000  0.32800  1.0000
  Br  Br12      1.0  0.00000  0.32800  0.32800  1.0000
  Br  Br13      1.0  0.32800  0.32800  0.32800  1.0000
  Br  Br14      1.0  0.00000  0.00000  0.67200  1.0000
  Br  Br15      1.0  0.00000  0.67200  0.67200  1.0000
  Br  Br16      1.0  0.67200  0.67200  0.67200  1.0000
  Br  Br17      1.0  0.68300  1.00000  0.68300  1.0000
  Br  Br18      1.0  0.31700  1.00000  0.68300  1.0000
  Br  Br19      1.0  0.68300  0.36600  0.68300  1.0000
  Br  Br20      1.0  0.25000  0.50000  0.75000  1.0000
  K   K1        1.0  0.36100  0.72100  0.08160  1.0000
  K   K2        1.0  0.63900  0.27900  0.36100  1.0000
  K   K3        1.0  0.08160  0.72100  0.36100  1.0000
  K   K4        1.0  0.63900  0.72100  0.36100  1.0000
  K   K5        1.0  0.36100  0.27900  0.63900  1.0000
  K   K6        1.0  0.91800  0.27900  0.63900  1.0000
  K   K7        1.0  0.36100  0.72100  0.63900  1.0000
  K   K8        1.0  0.63900  0.27900  0.91800  1.0000
  Zr  Zr1       1.0  0.85900  0.00000  0.14100  1.0000
  Zr  Zr2       1.0  0.14100  0.00000  0.14100  1.0000
  Zr  Zr3       1.0  0.14100  0.28100  0.14100  1.0000
  Zr  Zr4       1.0  0.85900  0.00000  0.85900  1.0000
  Zr  Zr5       1.0  0.14100  0.00000  0.85900  1.0000
  Zr  Zr6       1.0  0.85900  0.71900  0.85900  1.0000
