data_image0
_chemical_formula_structural       Ba2C8H12O14
_chemical_formula_sum              "Ba2 C8 H12 O14"
_cell_length_a       6.41212
_cell_length_b       8.45027
_cell_length_c       8.65446
_cell_angle_alpha    62.2063
_cell_angle_beta     64.938
_cell_angle_gamma    71.0023

_space_group_name_H-M_alt    "P 1"
_space_group_IT_number       1

loop_
  _space_group_symop_operation_xyz
  'x, y, z'

loop_
  _atom_site_type_symbol
  _atom_site_label
  _atom_site_symmetry_multiplicity
  _atom_site_fract_x
  _atom_site_fract_y
  _atom_site_fract_z
  _atom_site_occupancy
  Ba  Ba1       1.0  0.14300  0.18500  0.07230  1.0000
  Ba  Ba2       1.0  0.85700  0.81500  0.92800  1.0000
  C   C1        1.0  0.31700  0.71900  0.31300  1.0000
  C   C2        1.0  0.30200  0.52900  0.37400  1.0000
  C   C3        1.0  0.79200  0.49100  0.43400  1.0000
  C   C4        1.0  0.78200  0.29800  0.49300  1.0000
  C   C5        1.0  0.21800  0.70200  0.50700  1.0000
  C   C6        1.0  0.20800  0.50900  0.56600  1.0000
  C   C7        1.0  0.69800  0.47100  0.62600  1.0000
  C   C8        1.0  0.68300  0.28100  0.68700  1.0000
  H   H1        1.0  0.26700  0.51400  0.09530  1.0000
  H   H2        1.0  0.61400  0.44700  0.11900  1.0000
  H   H3        1.0  0.65000  0.01930  0.25400  1.0000
  H   H4        1.0  0.83000  0.83600  0.26500  1.0000
  H   H5        1.0  0.34800  0.20600  0.35300  1.0000
  H   H6        1.0  0.28700  0.00227  0.44000  1.0000
  H   H7        1.0  0.71300  0.99800  0.56000  1.0000
  H   H8        1.0  0.65200  0.79400  0.64700  1.0000
  H   H9        1.0  0.17000  0.16400  0.73500  1.0000
  H   H10       1.0  0.35000  0.98100  0.74600  1.0000
  H   H11       1.0  0.38600  0.55300  0.88100  1.0000
  H   H12       1.0  0.73300  0.48600  0.90500  1.0000
  O   O1        1.0  0.76500  0.46700  0.01570  1.0000
  O   O2        1.0  0.39000  0.84100  0.15700  1.0000
  O   O3        1.0  0.81900  0.97000  0.20600  1.0000
  O   O4        1.0  0.85100  0.62100  0.28200  1.0000
  O   O5        1.0  0.35600  0.42400  0.29100  1.0000
  O   O6        1.0  0.36900  0.09830  0.32600  1.0000
  O   O7        1.0  0.83200  0.19300  0.41200  1.0000
  O   O8        1.0  0.16800  0.80700  0.58800  1.0000
  O   O9        1.0  0.63100  0.90200  0.67400  1.0000
  O   O10       1.0  0.64400  0.57600  0.70900  1.0000
  O   O11       1.0  0.14900  0.37900  0.71800  1.0000
  O   O12       1.0  0.18100  0.03010  0.79400  1.0000
  O   O13       1.0  0.61000  0.15900  0.84300  1.0000
  O   O14       1.0  0.23500  0.53300  0.98400  1.0000
