data_image0
_chemical_formula_structural       LiMnO6Rh
_chemical_formula_sum              "Li1 Mn1 O6 Rh1"
_cell_length_a       5.03155
_cell_length_b       5.03155
_cell_length_c       4.83746
_cell_angle_alpha    98.3447
_cell_angle_beta     98.3447
_cell_angle_gamma    121

_space_group_name_H-M_alt    "P 1"
_space_group_IT_number       1

loop_
  _space_group_symop_operation_xyz
  'x, y, z'

loop_
  _atom_site_type_symbol
  _atom_site_label
  _atom_site_symmetry_multiplicity
  _atom_site_fract_x
  _atom_site_fract_y
  _atom_site_fract_z
  _atom_site_occupancy
  Li  Li1       1.0  0.62800  0.37200  0.50000  1.0000
  Mn  Mn1       1.0  0.17100  0.82900  0.00000  1.0000
  O   O1        1.0  0.21300  0.19600  0.22400  1.0000
  O   O2        1.0  0.94700  0.56400  0.23100  1.0000
  O   O3        1.0  0.56900  0.95100  0.23800  1.0000
  O   O4        1.0  0.04940  0.43100  0.76200  1.0000
  O   O5        1.0  0.43600  0.05310  0.76900  1.0000
  O   O6        1.0  0.80400  0.78700  0.77600  1.0000
  Rh  Rh1       1.0  0.84300  0.15700  0.00000  1.0000
