data_image0
_chemical_formula_structural       Ba4C8H8O16
_chemical_formula_sum              "Ba4 C8 H8 O16"
_cell_length_a       8.78963
_cell_length_b       7.54342
_cell_length_c       6.78965
_cell_angle_alpha    90
_cell_angle_beta     90
_cell_angle_gamma    90

_space_group_name_H-M_alt    "P 1"
_space_group_IT_number       1

loop_
  _space_group_symop_operation_xyz
  'x, y, z'

loop_
  _atom_site_type_symbol
  _atom_site_label
  _atom_site_symmetry_multiplicity
  _atom_site_fract_x
  _atom_site_fract_y
  _atom_site_fract_z
  _atom_site_occupancy
  Ba  Ba1       1.0  0.08990  0.03950  0.17000  1.0000
  Ba  Ba2       1.0  0.91000  0.53900  0.33000  1.0000
  Ba  Ba3       1.0  0.41000  0.96100  0.67000  1.0000
  Ba  Ba4       1.0  0.59000  0.46100  0.83000  1.0000
  C   C1        1.0  0.73700  0.90200  0.00044  1.0000
  C   C2        1.0  0.45900  0.12400  0.17700  1.0000
  C   C3        1.0  0.54100  0.62400  0.32300  1.0000
  C   C4        1.0  0.26300  0.40200  0.50000  1.0000
  C   C5        1.0  0.76300  0.09780  0.50000  1.0000
  C   C6        1.0  0.04060  0.87600  0.67700  1.0000
  C   C7        1.0  0.95900  0.37600  0.82300  1.0000
  C   C8        1.0  0.23700  0.59800  0.00000  1.0000
  H   H1        1.0  0.24200  0.45100  0.01970  1.0000
  H   H2        1.0  0.55600  0.19400  0.24800  1.0000
  H   H3        1.0  0.44400  0.69400  0.25200  1.0000
  H   H4        1.0  0.75800  0.95100  0.48000  1.0000
  H   H5        1.0  0.25800  0.54900  0.52000  1.0000
  H   H6        1.0  0.94400  0.80600  0.74800  1.0000
  H   H7        1.0  0.05610  0.30600  0.75200  1.0000
  H   H8        1.0  0.74200  0.04850  0.98000  1.0000
  O   O1        1.0  0.42000  0.17600  0.00587  1.0000
  O   O2        1.0  0.14000  0.68200  0.10000  1.0000
  O   O3        1.0  0.83100  0.83600  0.12100  1.0000
  O   O4        1.0  0.60600  0.50200  0.22700  1.0000
  O   O5        1.0  0.39400  0.00190  0.27300  1.0000
  O   O6        1.0  0.16900  0.33600  0.37900  1.0000
  O   O7        1.0  0.86000  0.18200  0.40000  1.0000
  O   O8        1.0  0.58000  0.67600  0.49400  1.0000
  O   O9        1.0  0.08010  0.82400  0.50600  1.0000
  O   O10       1.0  0.36000  0.31800  0.60000  1.0000
  O   O11       1.0  0.66900  0.16400  0.62100  1.0000
  O   O12       1.0  0.89400  0.49800  0.72700  1.0000
  O   O13       1.0  0.10600  0.99800  0.77300  1.0000
  O   O14       1.0  0.33100  0.66400  0.87900  1.0000
  O   O15       1.0  0.64000  0.81800  0.90000  1.0000
  O   O16       1.0  0.92000  0.32400  0.99400  1.0000
