data_image0
_chemical_formula_structural       C8H8Mn4O16
_chemical_formula_sum              "C8 H8 Mn4 O16"
_cell_length_a       5.69753
_cell_length_b       7.42706
_cell_length_c       9.50659
_cell_angle_alpha    90
_cell_angle_beta     90
_cell_angle_gamma    90

_space_group_name_H-M_alt    "P 1"
_space_group_IT_number       1

loop_
  _space_group_symop_operation_xyz
  'x, y, z'

loop_
  _atom_site_type_symbol
  _atom_site_label
  _atom_site_symmetry_multiplicity
  _atom_site_fract_x
  _atom_site_fract_y
  _atom_site_fract_z
  _atom_site_occupancy
  C   C1        1.0  0.34500  0.28600  0.13000  1.0000
  C   C2        1.0  0.15500  0.71400  0.13000  1.0000
  C   C3        1.0  0.84500  0.21400  0.37000  1.0000
  C   C4        1.0  0.65500  0.78600  0.37000  1.0000
  C   C5        1.0  0.34500  0.21400  0.63000  1.0000
  C   C6        1.0  0.15500  0.78600  0.63000  1.0000
  C   C7        1.0  0.84500  0.28600  0.87000  1.0000
  C   C8        1.0  0.65500  0.71400  0.87000  1.0000
  H   H1        1.0  0.18000  0.34500  0.09000  1.0000
  H   H2        1.0  0.32000  0.65500  0.09000  1.0000
  H   H3        1.0  0.68000  0.15500  0.41000  1.0000
  H   H4        1.0  0.82000  0.84500  0.41000  1.0000
  H   H5        1.0  0.18000  0.15500  0.59000  1.0000
  H   H6        1.0  0.32000  0.84500  0.59000  1.0000
  H   H7        1.0  0.68000  0.34500  0.91000  1.0000
  H   H8        1.0  0.82000  0.65500  0.91000  1.0000
  Mn  Mn1       1.0  0.75000  0.00000  0.10700  1.0000
  Mn  Mn2       1.0  0.25000  0.50000  0.39300  1.0000
  Mn  Mn3       1.0  0.75000  0.50000  0.60700  1.0000
  Mn  Mn4       1.0  0.25000  0.00000  0.89300  1.0000
  O   O1        1.0  0.43100  0.15600  0.05830  1.0000
  O   O2        1.0  0.06900  0.84400  0.05830  1.0000
  O   O3        1.0  0.44000  0.35000  0.23800  1.0000
  O   O4        1.0  0.06000  0.65000  0.23800  1.0000
  O   O5        1.0  0.94000  0.15000  0.26200  1.0000
  O   O6        1.0  0.56000  0.85000  0.26200  1.0000
  O   O7        1.0  0.93100  0.34400  0.44200  1.0000
  O   O8        1.0  0.56900  0.65600  0.44200  1.0000
  O   O9        1.0  0.43100  0.34400  0.55800  1.0000
  O   O10       1.0  0.06900  0.65600  0.55800  1.0000
  O   O11       1.0  0.44000  0.15000  0.73800  1.0000
  O   O12       1.0  0.06000  0.85000  0.73800  1.0000
  O   O13       1.0  0.94000  0.35000  0.76200  1.0000
  O   O14       1.0  0.56000  0.65000  0.76200  1.0000
  O   O15       1.0  0.93100  0.15600  0.94200  1.0000
  O   O16       1.0  0.56900  0.84400  0.94200  1.0000
