data_image0
_chemical_formula_structural       LiMnO6Os
_chemical_formula_sum              "Li1 Mn1 O6 Os1"
_cell_length_a       5.07514
_cell_length_b       5.07514
_cell_length_c       4.72485
_cell_angle_alpha    100.571
_cell_angle_beta     100.571
_cell_angle_gamma    119.978

_space_group_name_H-M_alt    "P 1"
_space_group_IT_number       1

loop_
  _space_group_symop_operation_xyz
  'x, y, z'

loop_
  _atom_site_type_symbol
  _atom_site_label
  _atom_site_symmetry_multiplicity
  _atom_site_fract_x
  _atom_site_fract_y
  _atom_site_fract_z
  _atom_site_occupancy
  Li  Li1       1.0  0.50000  0.50000  0.00000  1.0000
  Mn  Mn1       1.0  0.83300  0.16700  0.00000  1.0000
  O   O1        1.0  0.94000  0.57800  0.22700  1.0000
  O   O2        1.0  0.57700  0.94100  0.22700  1.0000
  O   O3        1.0  0.21400  0.21300  0.23100  1.0000
  O   O4        1.0  0.78700  0.78600  0.76900  1.0000
  O   O5        1.0  0.05900  0.42300  0.77300  1.0000
  O   O6        1.0  0.42200  0.05970  0.77300  1.0000
  Os  Os1       1.0  0.16600  0.83400  0.00000  1.0000
