data_image0
_chemical_formula_structural       C4H12Hg4O12S4
_chemical_formula_sum              "C4 H12 Hg4 O12 S4"
_cell_length_a       8.37379
_cell_length_b       8.37379
_cell_length_c       8.6156
_cell_angle_alpha    91.6647
_cell_angle_beta     117.718
_cell_angle_gamma    119.444

_space_group_name_H-M_alt    "P 1"
_space_group_IT_number       1

loop_
  _space_group_symop_operation_xyz
  'x, y, z'

loop_
  _atom_site_type_symbol
  _atom_site_label
  _atom_site_symmetry_multiplicity
  _atom_site_fract_x
  _atom_site_fract_y
  _atom_site_fract_z
  _atom_site_occupancy
  C   C1        1.0  0.55200  0.06790  0.24100  1.0000
  C   C2        1.0  0.32700  0.31100  0.25900  1.0000
  C   C3        1.0  0.67300  0.68900  0.74100  1.0000
  C   C4        1.0  0.44800  0.93200  0.75900  1.0000
  H   H1        1.0  0.38900  0.02510  0.12700  1.0000
  H   H2        1.0  0.29100  0.23600  0.12900  1.0000
  H   H3        1.0  0.67000  0.13600  0.20100  1.0000
  H   H4        1.0  0.43500  0.46900  0.29900  1.0000
  H   H5        1.0  0.60700  0.16200  0.37100  1.0000
  H   H6        1.0  0.39800  0.26100  0.37300  1.0000
  H   H7        1.0  0.60200  0.73900  0.62700  1.0000
  H   H8        1.0  0.39300  0.83800  0.62900  1.0000
  H   H9        1.0  0.56500  0.53100  0.70100  1.0000
  H   H10       1.0  0.33000  0.86400  0.79900  1.0000
  H   H11       1.0  0.70900  0.76400  0.87100  1.0000
  H   H12       1.0  0.61100  0.97500  0.87300  1.0000
  Hg  Hg1       1.0  0.94700  0.55200  0.18500  1.0000
  Hg  Hg2       1.0  0.86700  0.76200  0.31500  1.0000
  Hg  Hg3       1.0  0.13300  0.23800  0.68500  1.0000
  Hg  Hg4       1.0  0.05310  0.44800  0.81500  1.0000
  O   O1        1.0  0.99500  0.34000  0.07790  1.0000
  O   O2        1.0  0.45300  0.72400  0.10400  1.0000
  O   O3        1.0  0.92300  0.04030  0.14800  1.0000
  O   O4        1.0  0.39200  0.77400  0.35200  1.0000
  O   O5        1.0  0.12000  0.34900  0.39600  1.0000
  O   O6        1.0  0.76200  0.91700  0.42200  1.0000
  O   O7        1.0  0.23800  0.08290  0.57800  1.0000
  O   O8        1.0  0.88000  0.65100  0.60400  1.0000
  O   O9        1.0  0.60800  0.22600  0.64800  1.0000
  O   O10       1.0  0.07730  0.96000  0.85200  1.0000
  O   O11       1.0  0.54700  0.27600  0.89600  1.0000
  O   O12       1.0  0.00505  0.66000  0.92200  1.0000
  S   S1        1.0  0.07660  0.25200  0.22300  1.0000
  S   S2        1.0  0.53000  0.85400  0.27700  1.0000
  S   S3        1.0  0.47000  0.14600  0.72300  1.0000
  S   S4        1.0  0.92300  0.74800  0.77700  1.0000
