data_image0
_chemical_formula_structural       C8H12O14Sr2
_chemical_formula_sum              "C8 H12 O14 Sr2"
_cell_length_a       6.24879
_cell_length_b       7.24336
_cell_length_c       8.32238
_cell_angle_alpha    97.3947
_cell_angle_beta     90
_cell_angle_gamma    115.553

_space_group_name_H-M_alt    "P 1"
_space_group_IT_number       1

loop_
  _space_group_symop_operation_xyz
  'x, y, z'

loop_
  _atom_site_type_symbol
  _atom_site_label
  _atom_site_symmetry_multiplicity
  _atom_site_fract_x
  _atom_site_fract_y
  _atom_site_fract_z
  _atom_site_occupancy
  C   C1        1.0  0.96500  0.35100  0.01800  1.0000
  C   C2        1.0  0.98700  0.53800  0.12300  1.0000
  C   C3        1.0  0.44900  0.46200  0.37700  1.0000
  C   C4        1.0  0.61400  0.64900  0.48200  1.0000
  C   C5        1.0  0.38600  0.35100  0.51800  1.0000
  C   C6        1.0  0.55100  0.53800  0.62300  1.0000
  C   C7        1.0  0.01310  0.46200  0.87700  1.0000
  C   C8        1.0  0.03540  0.64900  0.98200  1.0000
  H   H1        1.0  0.41800  0.27600  0.02420  1.0000
  H   H2        1.0  0.50300  0.61700  0.13600  1.0000
  H   H3        1.0  0.46100  0.91000  0.17700  1.0000
  H   H4        1.0  0.55100  0.09040  0.32300  1.0000
  H   H5        1.0  0.88600  0.38300  0.36400  1.0000
  H   H6        1.0  0.14200  0.72400  0.47600  1.0000
  H   H7        1.0  0.85800  0.27600  0.52400  1.0000
  H   H8        1.0  0.11400  0.61700  0.63600  1.0000
  H   H9        1.0  0.44900  0.91000  0.67700  1.0000
  H   H10       1.0  0.53900  0.09040  0.82300  1.0000
  H   H11       1.0  0.49700  0.38300  0.86400  1.0000
  H   H12       1.0  0.58200  0.72400  0.97600  1.0000
  O   O1        1.0  0.92300  0.16800  0.03300  1.0000
  O   O2        1.0  0.59000  0.75300  0.09470  1.0000
  O   O3        1.0  0.37800  0.40900  0.22900  1.0000
  O   O4        1.0  0.40900  0.00000  0.25000  1.0000
  O   O5        1.0  0.97000  0.59100  0.27100  1.0000
  O   O6        1.0  0.83700  0.24700  0.40500  1.0000
  O   O7        1.0  0.75500  0.83200  0.46700  1.0000
  O   O8        1.0  0.24500  0.16800  0.53300  1.0000
  O   O9        1.0  0.16300  0.75300  0.59500  1.0000
  O   O10       1.0  0.03050  0.40900  0.72900  1.0000
  O   O11       1.0  0.59100  0.00000  0.75000  1.0000
  O   O12       1.0  0.62200  0.59100  0.77100  1.0000
  O   O13       1.0  0.41000  0.24700  0.90500  1.0000
  O   O14       1.0  0.07690  0.83200  0.96700  1.0000
  Sr  Sr1       1.0  0.01230  0.00000  0.25000  1.0000
  Sr  Sr2       1.0  0.98800  0.00000  0.75000  1.0000
