data_image0
_chemical_formula_structural       CoLiMnO6
_chemical_formula_sum              "Co1 Li1 Mn1 O6"
_cell_length_a       4.93674
_cell_length_b       4.93674
_cell_length_c       4.41253
_cell_angle_alpha    101.213
_cell_angle_beta     101.213
_cell_angle_gamma    118.632

_space_group_name_H-M_alt    "P 1"
_space_group_IT_number       1

loop_
  _space_group_symop_operation_xyz
  'x, y, z'

loop_
  _atom_site_type_symbol
  _atom_site_label
  _atom_site_symmetry_multiplicity
  _atom_site_fract_x
  _atom_site_fract_y
  _atom_site_fract_z
  _atom_site_occupancy
  Co  Co1       1.0  0.17100  0.82900  0.00000  1.0000
  Li  Li1       1.0  0.49700  0.50300  0.00000  1.0000
  Mn  Mn1       1.0  0.83100  0.16900  0.00000  1.0000
  O   O1        1.0  0.23400  0.22600  0.22600  1.0000
  O   O2        1.0  0.57500  0.93400  0.23900  1.0000
  O   O3        1.0  0.93900  0.58800  0.23900  1.0000
  O   O4        1.0  0.41200  0.06060  0.76100  1.0000
  O   O5        1.0  0.06590  0.42500  0.76100  1.0000
  O   O6        1.0  0.77400  0.76600  0.77400  1.0000
