data_image0
_chemical_formula_structural       C16H80N48
_chemical_formula_sum              "C16 H80 N48"
_cell_length_a       7.78414
_cell_length_b       8.11633
_cell_length_c       13.2014
_cell_angle_alpha    90
_cell_angle_beta     90
_cell_angle_gamma    90

_space_group_name_H-M_alt    "P 1"
_space_group_IT_number       1

loop_
  _space_group_symop_operation_xyz
  'x, y, z'

loop_
  _atom_site_type_symbol
  _atom_site_label
  _atom_site_symmetry_multiplicity
  _atom_site_fract_x
  _atom_site_fract_y
  _atom_site_fract_z
  _atom_site_occupancy
  C   C1        1.0  0.15800  0.29800  0.96700  1.0000
  C   C2        1.0  0.34200  0.70200  0.46700  1.0000
  C   C3        1.0  0.65800  0.20200  0.03300  1.0000
  C   C4        1.0  0.84200  0.79800  0.53300  1.0000
  C   C5        1.0  0.84200  0.70200  0.03300  1.0000
  C   C6        1.0  0.65800  0.29800  0.53300  1.0000
  C   C7        1.0  0.34200  0.79800  0.96700  1.0000
  C   C8        1.0  0.15800  0.20200  0.46700  1.0000
  C   C9        1.0  0.92300  0.52700  0.29800  1.0000
  C   C10       1.0  0.57700  0.47300  0.79800  1.0000
  C   C11       1.0  0.42300  0.97300  0.70200  1.0000
  C   C12       1.0  0.07700  0.02680  0.20200  1.0000
  C   C13       1.0  0.07700  0.47300  0.70200  1.0000
  C   C14       1.0  0.42300  0.52700  0.20200  1.0000
  C   C15       1.0  0.57700  0.02680  0.29800  1.0000
  C   C16       1.0  0.92300  0.97300  0.79800  1.0000
  H   H1        1.0  0.35200  0.14000  0.98400  1.0000
  H   H2        1.0  0.14800  0.86000  0.48400  1.0000
  H   H3        1.0  0.85200  0.36000  0.01610  1.0000
  H   H4        1.0  0.64800  0.64000  0.51600  1.0000
  H   H5        1.0  0.64800  0.86000  0.01610  1.0000
  H   H6        1.0  0.85200  0.14000  0.51600  1.0000
  H   H7        1.0  0.14800  0.64000  0.98400  1.0000
  H   H8        1.0  0.35200  0.36000  0.48400  1.0000
  H   H9        1.0  0.33600  0.39300  0.06230  1.0000
  H   H10       1.0  0.16400  0.60700  0.56200  1.0000
  H   H11       1.0  0.83600  0.10700  0.93800  1.0000
  H   H12       1.0  0.66400  0.89300  0.43800  1.0000
  H   H13       1.0  0.66400  0.60700  0.93800  1.0000
  H   H14       1.0  0.83600  0.39300  0.43800  1.0000
  H   H15       1.0  0.16400  0.89300  0.06230  1.0000
  H   H16       1.0  0.33600  0.10700  0.56200  1.0000
  H   H17       1.0  0.75300  0.70700  0.32900  1.0000
  H   H18       1.0  0.74700  0.29300  0.82900  1.0000
  H   H19       1.0  0.25300  0.79300  0.67100  1.0000
  H   H20       1.0  0.24700  0.20700  0.17100  1.0000
  H   H21       1.0  0.24700  0.29300  0.67100  1.0000
  H   H22       1.0  0.25300  0.70700  0.17100  1.0000
  H   H23       1.0  0.74700  0.20700  0.32900  1.0000
  H   H24       1.0  0.75300  0.79300  0.82900  1.0000
  H   H25       1.0  0.70800  0.60200  0.21300  1.0000
  H   H26       1.0  0.79200  0.39800  0.71300  1.0000
  H   H27       1.0  0.20800  0.89800  0.78700  1.0000
  H   H28       1.0  0.29200  0.10200  0.28700  1.0000
  H   H29       1.0  0.29200  0.39800  0.78700  1.0000
  H   H30       1.0  0.20800  0.60200  0.28700  1.0000
  H   H31       1.0  0.79200  0.10200  0.21300  1.0000
  H   H32       1.0  0.70800  0.89800  0.71300  1.0000
  H   H33       1.0  0.99000  0.66400  0.41200  1.0000
  H   H34       1.0  0.51000  0.33600  0.91200  1.0000
  H   H35       1.0  0.49000  0.83600  0.58800  1.0000
  H   H36       1.0  0.01020  0.16400  0.08840  1.0000
  H   H37       1.0  0.01020  0.33600  0.58800  1.0000
  H   H38       1.0  0.49000  0.66400  0.08840  1.0000
  H   H39       1.0  0.51000  0.16400  0.41200  1.0000
  H   H40       1.0  0.99000  0.83600  0.91200  1.0000
  H   H41       1.0  0.99600  0.27800  0.85900  1.0000
  H   H42       1.0  0.50400  0.72200  0.35900  1.0000
  H   H43       1.0  0.49600  0.22200  0.14100  1.0000
  H   H44       1.0  0.00424  0.77800  0.64100  1.0000
  H   H45       1.0  0.00424  0.72200  0.14100  1.0000
  H   H46       1.0  0.49600  0.27800  0.64100  1.0000
  H   H47       1.0  0.50400  0.77800  0.85900  1.0000
  H   H48       1.0  0.99600  0.22200  0.35900  1.0000
  H   H49       1.0  0.17400  0.07040  0.91000  1.0000
  H   H50       1.0  0.32600  0.93000  0.41000  1.0000
  H   H51       1.0  0.67400  0.43000  0.08980  1.0000
  H   H52       1.0  0.82600  0.57000  0.59000  1.0000
  H   H53       1.0  0.82600  0.93000  0.08980  1.0000
  H   H54       1.0  0.67400  0.07040  0.59000  1.0000
  H   H55       1.0  0.32600  0.57000  0.91000  1.0000
  H   H56       1.0  0.17400  0.43000  0.41000  1.0000
  H   H57       1.0  0.88400  0.36800  0.17600  1.0000
  H   H58       1.0  0.61600  0.63200  0.67600  1.0000
  H   H59       1.0  0.38400  0.13200  0.82400  1.0000
  H   H60       1.0  0.11600  0.86800  0.32400  1.0000
  H   H61       1.0  0.11600  0.63200  0.82400  1.0000
  H   H62       1.0  0.38400  0.36800  0.32400  1.0000
  H   H63       1.0  0.61600  0.86800  0.17600  1.0000
  H   H64       1.0  0.88400  0.13200  0.67600  1.0000
  H   H65       1.0  0.07760  0.34800  0.24100  1.0000
  H   H66       1.0  0.42200  0.65200  0.74100  1.0000
  H   H67       1.0  0.57800  0.15200  0.75900  1.0000
  H   H68       1.0  0.92200  0.84800  0.25900  1.0000
  H   H69       1.0  0.92200  0.65200  0.75900  1.0000
  H   H70       1.0  0.57800  0.34800  0.25900  1.0000
  H   H71       1.0  0.42200  0.84800  0.24100  1.0000
  H   H72       1.0  0.07760  0.15200  0.74100  1.0000
  H   H73       1.0  0.13200  0.47300  0.07300  1.0000
  H   H74       1.0  0.36800  0.52700  0.57300  1.0000
  H   H75       1.0  0.63200  0.02690  0.92700  1.0000
  H   H76       1.0  0.86800  0.97300  0.42700  1.0000
  H   H77       1.0  0.86800  0.52700  0.92700  1.0000
  H   H78       1.0  0.63200  0.47300  0.42700  1.0000
  H   H79       1.0  0.36800  0.97300  0.07300  1.0000
  H   H80       1.0  0.13200  0.02690  0.57300  1.0000
  N   N1        1.0  0.25600  0.17000  0.93300  1.0000
  N   N2        1.0  0.24400  0.83000  0.43300  1.0000
  N   N3        1.0  0.75600  0.33000  0.06750  1.0000
  N   N4        1.0  0.74400  0.67000  0.56700  1.0000
  N   N5        1.0  0.74400  0.83000  0.06750  1.0000
  N   N6        1.0  0.75600  0.17000  0.56700  1.0000
  N   N7        1.0  0.24400  0.67000  0.93300  1.0000
  N   N8        1.0  0.25600  0.33000  0.43300  1.0000
  N   N9        1.0  0.02570  0.55800  0.37500  1.0000
  N   N10       1.0  0.47400  0.44200  0.87500  1.0000
  N   N11       1.0  0.52600  0.94200  0.62500  1.0000
  N   N12       1.0  0.97400  0.05820  0.12500  1.0000
  N   N13       1.0  0.97400  0.44200  0.62500  1.0000
  N   N14       1.0  0.52600  0.55800  0.12500  1.0000
  N   N15       1.0  0.47400  0.05820  0.37500  1.0000
  N   N16       1.0  0.02570  0.94200  0.87500  1.0000
  N   N17       1.0  0.95400  0.39100  0.24200  1.0000
  N   N18       1.0  0.54600  0.60900  0.74200  1.0000
  N   N19       1.0  0.45400  0.10900  0.75800  1.0000
  N   N20       1.0  0.04570  0.89100  0.25800  1.0000
  N   N21       1.0  0.04570  0.60900  0.75800  1.0000
  N   N22       1.0  0.45400  0.39100  0.25800  1.0000
  N   N23       1.0  0.54600  0.89100  0.24200  1.0000
  N   N24       1.0  0.95400  0.10900  0.74200  1.0000
  N   N25       1.0  0.01680  0.34700  0.92300  1.0000
  N   N26       1.0  0.48300  0.65300  0.42300  1.0000
  N   N27       1.0  0.51700  0.15300  0.07690  1.0000
  N   N28       1.0  0.98300  0.84700  0.57700  1.0000
  N   N29       1.0  0.98300  0.65300  0.07690  1.0000
  N   N30       1.0  0.51700  0.34700  0.57700  1.0000
  N   N31       1.0  0.48300  0.84700  0.92300  1.0000
  N   N32       1.0  0.01680  0.15300  0.42300  1.0000
  N   N33       1.0  0.78500  0.62000  0.27600  1.0000
  N   N34       1.0  0.71500  0.38000  0.77600  1.0000
  N   N35       1.0  0.28500  0.88000  0.72400  1.0000
  N   N36       1.0  0.21500  0.12000  0.22400  1.0000
  N   N37       1.0  0.21500  0.38000  0.72400  1.0000
  N   N38       1.0  0.28500  0.62000  0.22400  1.0000
  N   N39       1.0  0.71500  0.12000  0.27600  1.0000
  N   N40       1.0  0.78500  0.88000  0.77600  1.0000
  N   N41       1.0  0.20700  0.37000  0.05710  1.0000
  N   N42       1.0  0.29300  0.63000  0.55700  1.0000
  N   N43       1.0  0.70700  0.13000  0.94300  1.0000
  N   N44       1.0  0.79300  0.87000  0.44300  1.0000
  N   N45       1.0  0.79300  0.63000  0.94300  1.0000
  N   N46       1.0  0.70700  0.37000  0.44300  1.0000
  N   N47       1.0  0.29300  0.87000  0.05710  1.0000
  N   N48       1.0  0.20700  0.13000  0.55700  1.0000
