data_image0
_chemical_formula_structural       Ba14Li6N6Na10
_chemical_formula_sum              "Ba14 Li6 N6 Na10"
_cell_length_a       12.3987
_cell_length_b       12.3987
_cell_length_c       12.3987
_cell_angle_alpha    120
_cell_angle_beta     90
_cell_angle_gamma    120

_space_group_name_H-M_alt    "P 1"
_space_group_IT_number       1

loop_
  _space_group_symop_operation_xyz
  'x, y, z'

loop_
  _atom_site_type_symbol
  _atom_site_label
  _atom_site_symmetry_multiplicity
  _atom_site_fract_x
  _atom_site_fract_y
  _atom_site_fract_z
  _atom_site_occupancy
  Ba  Ba1       1.0  0.89500  0.78900  0.10500  1.0000
  Ba  Ba2       1.0  0.31600  0.21100  0.10500  1.0000
  Ba  Ba3       1.0  0.89500  0.21100  0.10500  1.0000
  Ba  Ba4       1.0  0.29200  0.00000  0.29200  1.0000
  Ba  Ba5       1.0  0.70800  0.00000  0.29200  1.0000
  Ba  Ba6       1.0  0.29200  0.58400  0.29200  1.0000
  Ba  Ba7       1.0  0.10500  0.20900  0.31400  1.0000
  Ba  Ba8       1.0  0.89500  0.78900  0.68400  1.0000
  Ba  Ba9       1.0  0.70800  0.00000  0.70800  1.0000
  Ba  Ba10      1.0  0.29200  0.00000  0.70800  1.0000
  Ba  Ba11      1.0  0.70800  0.41600  0.70800  1.0000
  Ba  Ba12      1.0  0.10500  0.20900  0.89500  1.0000
  Ba  Ba13      1.0  0.10500  0.79100  0.89500  1.0000
  Ba  Ba14      1.0  0.68600  0.79100  0.89500  1.0000
  Li  Li1       1.0  0.00000  0.00000  0.00000  1.0000
  Li  Li2       1.0  0.68200  0.36500  0.04720  1.0000
  Li  Li3       1.0  0.68200  0.36500  0.31800  1.0000
  Li  Li4       1.0  0.68200  0.63500  0.31800  1.0000
  Li  Li5       1.0  0.95300  0.63500  0.31800  1.0000
  Li  Li6       1.0  0.50000  0.00000  0.50000  1.0000
  N   N1        1.0  0.14900  0.00000  0.14900  1.0000
  N   N2        1.0  0.85100  0.00000  0.14900  1.0000
  N   N3        1.0  0.14900  0.29800  0.14900  1.0000
  N   N4        1.0  0.14900  0.00000  0.85100  1.0000
  N   N5        1.0  0.85100  0.00000  0.85100  1.0000
  N   N6        1.0  0.85100  0.70200  0.85100  1.0000
  Na  Na1       1.0  0.99200  0.50000  0.00842  1.0000
  Na  Na2       1.0  0.50800  0.01680  0.00842  1.0000
  Na  Na3       1.0  0.50800  0.50000  0.00842  1.0000
  Na  Na4       1.0  0.50800  0.50000  0.49200  1.0000
  Na  Na5       1.0  0.99200  0.50000  0.49200  1.0000
  Na  Na6       1.0  0.99200  0.98300  0.49200  1.0000
  Na  Na7       1.0  0.01620  0.34400  0.67200  1.0000
  Na  Na8       1.0  0.32800  0.34400  0.67200  1.0000
  Na  Na9       1.0  0.32800  0.65600  0.67200  1.0000
  Na  Na10      1.0  0.32800  0.65600  0.98400  1.0000
