data_image0
_chemical_formula_structural       C8H8Mo4O16
_chemical_formula_sum              "C8 H8 Mo4 O16"
_cell_length_a       7.70013
_cell_length_b       10.7664
_cell_length_c       5.52881
_cell_angle_alpha    90
_cell_angle_beta     112.035
_cell_angle_gamma    90

_space_group_name_H-M_alt    "P 1"
_space_group_IT_number       1

loop_
  _space_group_symop_operation_xyz
  'x, y, z'

loop_
  _atom_site_type_symbol
  _atom_site_label
  _atom_site_symmetry_multiplicity
  _atom_site_fract_x
  _atom_site_fract_y
  _atom_site_fract_z
  _atom_site_occupancy
  C   C1        1.0  0.93600  0.21400  0.21600  1.0000
  C   C2        1.0  0.43600  0.28600  0.21600  1.0000
  C   C3        1.0  0.62700  0.95600  0.31800  1.0000
  C   C4        1.0  0.12700  0.54400  0.31800  1.0000
  C   C5        1.0  0.87300  0.45600  0.68200  1.0000
  C   C6        1.0  0.37300  0.04440  0.68200  1.0000
  C   C7        1.0  0.56400  0.71400  0.78400  1.0000
  C   C8        1.0  0.06430  0.78600  0.78400  1.0000
  H   H1        1.0  0.90500  0.29800  0.09660  1.0000
  H   H2        1.0  0.40500  0.20200  0.09660  1.0000
  H   H3        1.0  0.47600  0.93700  0.24900  1.0000
  H   H4        1.0  0.97600  0.56300  0.24900  1.0000
  H   H5        1.0  0.02400  0.43700  0.75100  1.0000
  H   H6        1.0  0.52400  0.06330  0.75100  1.0000
  H   H7        1.0  0.59500  0.79800  0.90300  1.0000
  H   H8        1.0  0.09490  0.70200  0.90300  1.0000
  Mo  Mo1       1.0  0.51100  0.55200  0.34200  1.0000
  Mo  Mo2       1.0  0.01130  0.94800  0.34200  1.0000
  Mo  Mo3       1.0  0.98900  0.05160  0.65800  1.0000
  Mo  Mo4       1.0  0.48900  0.44800  0.65800  1.0000
  O   O1        1.0  0.96300  0.11200  0.11200  1.0000
  O   O2        1.0  0.46300  0.38800  0.11200  1.0000
  O   O3        1.0  0.72200  0.91300  0.19000  1.0000
  O   O4        1.0  0.22200  0.58700  0.19000  1.0000
  O   O5        1.0  0.43900  0.28200  0.44800  1.0000
  O   O6        1.0  0.93900  0.21800  0.44800  1.0000
  O   O7        1.0  0.29900  0.98000  0.47400  1.0000
  O   O8        1.0  0.79900  0.52000  0.47400  1.0000
  O   O9        1.0  0.70100  0.01990  0.52600  1.0000
  O   O10       1.0  0.20100  0.48000  0.52600  1.0000
  O   O11       1.0  0.06140  0.78200  0.55200  1.0000
  O   O12       1.0  0.56100  0.71800  0.55200  1.0000
  O   O13       1.0  0.77800  0.41300  0.81000  1.0000
  O   O14       1.0  0.27800  0.08650  0.81000  1.0000
  O   O15       1.0  0.53700  0.61200  0.88800  1.0000
  O   O16       1.0  0.03700  0.88800  0.88800  1.0000
