data_image0
_chemical_formula_structural       Ga2Ni2O5
_chemical_formula_sum              "Ga2 Ni2 O5"
_cell_length_a       7.48914
_cell_length_b       3.57644
_cell_length_c       3.57644
_cell_angle_alpha    90
_cell_angle_beta     90
_cell_angle_gamma    90

_space_group_name_H-M_alt    "P 1"
_space_group_IT_number       1

loop_
  _space_group_symop_operation_xyz
  'x, y, z'

loop_
  _atom_site_type_symbol
  _atom_site_label
  _atom_site_symmetry_multiplicity
  _atom_site_fract_x
  _atom_site_fract_y
  _atom_site_fract_z
  _atom_site_occupancy
  Ga  Ga1       1.0  0.00000  0.00000  0.00000  1.0000
  Ga  Ga2       1.0  0.50000  0.00000  0.00000  1.0000
  Ni  Ni1       1.0  0.23600  0.50000  0.50000  1.0000
  Ni  Ni2       1.0  0.76400  0.50000  0.50000  1.0000
  O   O1        1.0  0.16600  0.50000  0.00000  1.0000
  O   O2        1.0  0.83400  0.50000  0.00000  1.0000
  O   O3        1.0  0.16600  0.00000  0.50000  1.0000
  O   O4        1.0  0.83400  0.00000  0.50000  1.0000
  O   O5        1.0  0.50000  0.50000  0.50000  1.0000
