data_image0
_chemical_formula_structural       Br6C6H20N2Sn2
_chemical_formula_sum              "Br6 C6 H20 N2 Sn2"
_cell_length_a       6.32934
_cell_length_b       12.4925
_cell_length_c       6.50144
_cell_angle_alpha    90.0001
_cell_angle_beta     96.6052
_cell_angle_gamma    90.0003

_space_group_name_H-M_alt    "P 1"
_space_group_IT_number       1

loop_
  _space_group_symop_operation_xyz
  'x, y, z'

loop_
  _atom_site_type_symbol
  _atom_site_label
  _atom_site_symmetry_multiplicity
  _atom_site_fract_x
  _atom_site_fract_y
  _atom_site_fract_z
  _atom_site_occupancy
  Br  Br1       1.0  0.44100  0.01170  0.06220  1.0000
  Br  Br2       1.0  0.02210  0.98500  0.44000  1.0000
  Br  Br3       1.0  0.55600  0.71500  0.47400  1.0000
  Br  Br4       1.0  0.44400  0.21500  0.52600  1.0000
  Br  Br5       1.0  0.97800  0.48500  0.56000  1.0000
  Br  Br6       1.0  0.55900  0.51200  0.93800  1.0000
  C   C1        1.0  0.18300  0.30800  0.02500  1.0000
  C   C2        1.0  0.04360  0.66000  0.12200  1.0000
  C   C3        1.0  0.87900  0.24700  0.20100  1.0000
  C   C4        1.0  0.12100  0.74700  0.79900  1.0000
  C   C5        1.0  0.95600  0.16000  0.87800  1.0000
  C   C6        1.0  0.81700  0.80800  0.97500  1.0000
  H   H1        1.0  0.68700  0.77900  0.05730  1.0000
  H   H2        1.0  0.91600  0.86400  0.07380  1.0000
  H   H3        1.0  0.14200  0.59400  0.08020  1.0000
  H   H4        1.0  0.76600  0.29900  0.10800  1.0000
  H   H5        1.0  0.14800  0.16000  0.15700  1.0000
  H   H6        1.0  0.24600  0.34600  0.17100  1.0000
  H   H7        1.0  0.91400  0.63200  0.20500  1.0000
  H   H8        1.0  0.14200  0.71800  0.21600  1.0000
  H   H9        1.0  0.79900  0.17500  0.24700  1.0000
  H   H10       1.0  0.95200  0.29000  0.33800  1.0000
  H   H11       1.0  0.04810  0.79000  0.66200  1.0000
  H   H12       1.0  0.20100  0.67500  0.75300  1.0000
  H   H13       1.0  0.85800  0.21800  0.78400  1.0000
  H   H14       1.0  0.08570  0.13200  0.79500  1.0000
  H   H15       1.0  0.75400  0.84600  0.82900  1.0000
  H   H16       1.0  0.85200  0.66000  0.84300  1.0000
  H   H17       1.0  0.23400  0.79900  0.89200  1.0000
  H   H18       1.0  0.85800  0.09360  0.92000  1.0000
  H   H19       1.0  0.08370  0.36400  0.92600  1.0000
  H   H20       1.0  0.31300  0.27900  0.94300  1.0000
  N   N1        1.0  0.04860  0.21500  0.07250  1.0000
  N   N2        1.0  0.95100  0.71500  0.92800  1.0000
  Sn  Sn1       1.0  0.45300  0.99800  0.48000  1.0000
  Sn  Sn2       1.0  0.54700  0.49800  0.52000  1.0000
