data_image0
_chemical_formula_structural       Li3MnO6Zr
_chemical_formula_sum              "Li3 Mn1 O6 Zr1"
_cell_length_a       5.23121
_cell_length_b       5.23121
_cell_length_c       4.96919
_cell_angle_alpha    98.8361
_cell_angle_beta     98.8356
_cell_angle_gamma    121.385

_space_group_name_H-M_alt    "P 1"
_space_group_IT_number       1

loop_
  _space_group_symop_operation_xyz
  'x, y, z'

loop_
  _atom_site_type_symbol
  _atom_site_label
  _atom_site_symmetry_multiplicity
  _atom_site_fract_x
  _atom_site_fract_y
  _atom_site_fract_z
  _atom_site_occupancy
  Li  Li1       1.0  0.49800  0.50200  0.00000  1.0000
  Li  Li2       1.0  0.35300  0.64700  0.50000  1.0000
  Li  Li3       1.0  0.66700  0.33300  0.50000  1.0000
  Mn  Mn1       1.0  0.83600  0.16400  0.00000  1.0000
  O   O1        1.0  0.22700  0.25000  0.22600  1.0000
  O   O2        1.0  0.58800  0.93400  0.22800  1.0000
  O   O3        1.0  0.91900  0.53700  0.23500  1.0000
  O   O4        1.0  0.46300  0.08140  0.76500  1.0000
  O   O5        1.0  0.06580  0.41200  0.77200  1.0000
  O   O6        1.0  0.75000  0.77300  0.77400  1.0000
  Zr  Zr1       1.0  0.15600  0.84400  0.00000  1.0000
