data_image0
_chemical_formula_structural       C4H16N12Rb4
_chemical_formula_sum              "C4 H16 N12 Rb4"
_cell_length_a       6.83118
_cell_length_b       6.95932
_cell_length_c       7.39771
_cell_angle_alpha    90
_cell_angle_beta     90
_cell_angle_gamma    90

_space_group_name_H-M_alt    "P 1"
_space_group_IT_number       1

loop_
  _space_group_symop_operation_xyz
  'x, y, z'

loop_
  _atom_site_type_symbol
  _atom_site_label
  _atom_site_symmetry_multiplicity
  _atom_site_fract_x
  _atom_site_fract_y
  _atom_site_fract_z
  _atom_site_occupancy
  C   C1        1.0  0.14100  0.25000  0.12600  1.0000
  C   C2        1.0  0.64100  0.25000  0.37400  1.0000
  C   C3        1.0  0.35900  0.75000  0.62600  1.0000
  C   C4        1.0  0.85900  0.75000  0.87400  1.0000
  H   H1        1.0  0.05270  0.62400  0.06220  1.0000
  H   H2        1.0  0.05270  0.87600  0.06220  1.0000
  H   H3        1.0  0.80000  0.09140  0.21500  1.0000
  H   H4        1.0  0.80000  0.40900  0.21500  1.0000
  H   H5        1.0  0.30000  0.09140  0.28500  1.0000
  H   H6        1.0  0.30000  0.40900  0.28500  1.0000
  H   H7        1.0  0.55300  0.62400  0.43800  1.0000
  H   H8        1.0  0.55300  0.87600  0.43800  1.0000
  H   H9        1.0  0.44700  0.12400  0.56200  1.0000
  H   H10       1.0  0.44700  0.37600  0.56200  1.0000
  H   H11       1.0  0.70000  0.59100  0.71500  1.0000
  H   H12       1.0  0.70000  0.90900  0.71500  1.0000
  H   H13       1.0  0.20000  0.59100  0.78500  1.0000
  H   H14       1.0  0.20000  0.90900  0.78500  1.0000
  H   H15       1.0  0.94700  0.12400  0.93800  1.0000
  H   H16       1.0  0.94700  0.37600  0.93800  1.0000
  N   N1        1.0  0.98600  0.75000  0.01890  1.0000
  N   N2        1.0  0.19800  0.07510  0.18500  1.0000
  N   N3        1.0  0.19800  0.42500  0.18500  1.0000
  N   N4        1.0  0.69800  0.07510  0.31500  1.0000
  N   N5        1.0  0.69800  0.42500  0.31500  1.0000
  N   N6        1.0  0.48600  0.75000  0.48100  1.0000
  N   N7        1.0  0.51400  0.25000  0.51900  1.0000
  N   N8        1.0  0.30200  0.57500  0.68500  1.0000
  N   N9        1.0  0.30200  0.92500  0.68500  1.0000
  N   N10       1.0  0.80200  0.57500  0.81500  1.0000
  N   N11       1.0  0.80200  0.92500  0.81500  1.0000
  N   N12       1.0  0.01390  0.25000  0.98100  1.0000
  Rb  Rb1       1.0  0.47400  0.75000  0.07560  1.0000
  Rb  Rb2       1.0  0.97400  0.75000  0.42400  1.0000
  Rb  Rb3       1.0  0.02610  0.25000  0.57600  1.0000
  Rb  Rb4       1.0  0.52600  0.25000  0.92400  1.0000
