data_image0
_chemical_formula_structural       C8H24I2N2
_chemical_formula_sum              "C8 H24 I2 N2"
_cell_length_a       5.64167
_cell_length_b       7.82739
_cell_length_c       7.82739
_cell_angle_alpha    90
_cell_angle_beta     90
_cell_angle_gamma    90

_space_group_name_H-M_alt    "P 1"
_space_group_IT_number       1

loop_
  _space_group_symop_operation_xyz
  'x, y, z'

loop_
  _atom_site_type_symbol
  _atom_site_label
  _atom_site_symmetry_multiplicity
  _atom_site_fract_x
  _atom_site_fract_y
  _atom_site_fract_z
  _atom_site_occupancy
  C   C1        1.0  0.34500  0.75000  0.09440  1.0000
  C   C2        1.0  0.65500  0.59400  0.25000  1.0000
  C   C3        1.0  0.65500  0.90600  0.25000  1.0000
  C   C4        1.0  0.34500  0.75000  0.40600  1.0000
  C   C5        1.0  0.65500  0.25000  0.59400  1.0000
  C   C6        1.0  0.34500  0.09440  0.75000  1.0000
  C   C7        1.0  0.34500  0.40600  0.75000  1.0000
  C   C8        1.0  0.65500  0.25000  0.90600  1.0000
  H   H1        1.0  0.54000  0.25000  0.01890  1.0000
  H   H2        1.0  0.23500  0.63500  0.09760  1.0000
  H   H3        1.0  0.23500  0.86500  0.09760  1.0000
  H   H4        1.0  0.76500  0.59800  0.13500  1.0000
  H   H5        1.0  0.76500  0.90200  0.13500  1.0000
  H   H6        1.0  0.54000  0.01890  0.25000  1.0000
  H   H7        1.0  0.54000  0.48100  0.25000  1.0000
  H   H8        1.0  0.76500  0.59800  0.36500  1.0000
  H   H9        1.0  0.76500  0.90200  0.36500  1.0000
  H   H10       1.0  0.23500  0.63500  0.40200  1.0000
  H   H11       1.0  0.23500  0.86500  0.40200  1.0000
  H   H12       1.0  0.54000  0.25000  0.48100  1.0000
  H   H13       1.0  0.46000  0.75000  0.51900  1.0000
  H   H14       1.0  0.76500  0.13500  0.59800  1.0000
  H   H15       1.0  0.76500  0.36500  0.59800  1.0000
  H   H16       1.0  0.23500  0.09760  0.63500  1.0000
  H   H17       1.0  0.23500  0.40200  0.63500  1.0000
  H   H18       1.0  0.46000  0.51900  0.75000  1.0000
  H   H19       1.0  0.46000  0.98100  0.75000  1.0000
  H   H20       1.0  0.23500  0.09760  0.86500  1.0000
  H   H21       1.0  0.23500  0.40200  0.86500  1.0000
  H   H22       1.0  0.76500  0.13500  0.90200  1.0000
  H   H23       1.0  0.76500  0.36500  0.90200  1.0000
  H   H24       1.0  0.46000  0.75000  0.98100  1.0000
  I   I1        1.0  0.12300  0.25000  0.25000  1.0000
  I   I2        1.0  0.87700  0.75000  0.75000  1.0000
  N   N1        1.0  0.50000  0.75000  0.25000  1.0000
  N   N2        1.0  0.50000  0.25000  0.75000  1.0000
