data_image0
_chemical_formula_structural       As12Ni16Y5Zr3
_chemical_formula_sum              "As12 Ni16 Y5 Zr3"
_cell_length_a       12.7549
_cell_length_b       12.7549
_cell_length_c       3.91905
_cell_angle_alpha    90
_cell_angle_beta     90
_cell_angle_gamma    120.001

_space_group_name_H-M_alt    "P 1"
_space_group_IT_number       1

loop_
  _space_group_symop_operation_xyz
  'x, y, z'

loop_
  _atom_site_type_symbol
  _atom_site_label
  _atom_site_symmetry_multiplicity
  _atom_site_fract_x
  _atom_site_fract_y
  _atom_site_fract_z
  _atom_site_occupancy
  As  As1       1.0  0.35700  0.00000  0.00000  1.0000
  As  As2       1.0  0.82200  0.00000  0.00000  1.0000
  As  As3       1.0  0.17800  0.17800  0.00000  1.0000
  As  As4       1.0  0.00000  0.35700  0.00000  1.0000
  As  As5       1.0  0.64300  0.64300  0.00000  1.0000
  As  As6       1.0  0.00000  0.82200  0.00000  1.0000
  As  As7       1.0  0.69400  0.17300  0.50000  1.0000
  As  As8       1.0  0.47900  0.30600  0.50000  1.0000
  As  As9       1.0  0.30600  0.47900  0.50000  1.0000
  As  As10      1.0  0.82700  0.52100  0.50000  1.0000
  As  As11      1.0  0.17300  0.69400  0.50000  1.0000
  As  As12      1.0  0.52100  0.82700  0.50000  1.0000
  Ni  Ni1       1.0  0.00000  0.00000  0.00000  1.0000
  Ni  Ni2       1.0  0.80800  0.18400  0.00000  1.0000
  Ni  Ni3       1.0  0.37700  0.19200  0.00000  1.0000
  Ni  Ni4       1.0  0.19200  0.37700  0.00000  1.0000
  Ni  Ni5       1.0  0.81600  0.62300  0.00000  1.0000
  Ni  Ni6       1.0  0.18400  0.80800  0.00000  1.0000
  Ni  Ni7       1.0  0.62300  0.81600  0.00000  1.0000
  Ni  Ni8       1.0  0.72400  0.00000  0.50000  1.0000
  Ni  Ni9       1.0  0.48300  0.12100  0.50000  1.0000
  Ni  Ni10      1.0  0.27600  0.27600  0.50000  1.0000
  Ni  Ni11      1.0  0.87900  0.36300  0.50000  1.0000
  Ni  Ni12      1.0  0.12100  0.48300  0.50000  1.0000
  Ni  Ni13      1.0  0.63700  0.51700  0.50000  1.0000
  Ni  Ni14      1.0  0.51700  0.63700  0.50000  1.0000
  Ni  Ni15      1.0  0.00000  0.72400  0.50000  1.0000
  Ni  Ni16      1.0  0.36300  0.87900  0.50000  1.0000
  Y   Y1        1.0  0.66700  0.33300  0.00000  1.0000
  Y   Y2        1.0  0.33300  0.66700  0.00000  1.0000
  Y   Y3        1.0  0.18500  0.00000  0.50000  1.0000
  Y   Y4        1.0  0.00000  0.18500  0.50000  1.0000
  Y   Y5        1.0  0.81500  0.81500  0.50000  1.0000
  Zr  Zr1       1.0  0.56400  0.00000  0.00000  1.0000
  Zr  Zr2       1.0  0.43600  0.43600  0.00000  1.0000
  Zr  Zr3       1.0  0.00000  0.56400  0.00000  1.0000
