data_image0
_chemical_formula_structural       B16Ru16Tb4
_chemical_formula_sum              "B16 Ru16 Tb4"
_cell_length_a       9.20219
_cell_length_b       7.49355
_cell_length_c       7.49355
_cell_angle_alpha    90
_cell_angle_beta     114.027
_cell_angle_gamma    114.027

_space_group_name_H-M_alt    "P 1"
_space_group_IT_number       1

loop_
  _space_group_symop_operation_xyz
  'x, y, z'

loop_
  _atom_site_type_symbol
  _atom_site_label
  _atom_site_symmetry_multiplicity
  _atom_site_fract_x
  _atom_site_fract_y
  _atom_site_fract_z
  _atom_site_occupancy
  B   B1        1.0  0.91400  0.28900  0.06620  1.0000
  B   B2        1.0  0.41400  0.56600  0.12500  1.0000
  B   B3        1.0  0.08630  0.21100  0.15300  1.0000
  B   B4        1.0  0.58600  0.15300  0.21100  1.0000
  B   B5        1.0  0.41400  0.06620  0.28900  1.0000
  B   B6        1.0  0.91400  0.62500  0.34700  1.0000
  B   B7        1.0  0.58600  0.65300  0.37500  1.0000
  B   B8        1.0  0.08630  0.87500  0.43400  1.0000
  B   B9        1.0  0.91400  0.12500  0.56600  1.0000
  B   B10       1.0  0.41400  0.34700  0.62500  1.0000
  B   B11       1.0  0.08630  0.37500  0.65300  1.0000
  B   B12       1.0  0.58600  0.93400  0.71100  1.0000
  B   B13       1.0  0.41400  0.84700  0.78900  1.0000
  B   B14       1.0  0.91400  0.78900  0.84700  1.0000
  B   B15       1.0  0.58600  0.43400  0.87500  1.0000
  B   B16       1.0  0.08630  0.71100  0.93400  1.0000
  Ru  Ru1       1.0  0.87300  0.55200  0.03890  1.0000
  Ru  Ru2       1.0  0.37300  0.83500  0.05210  1.0000
  Ru  Ru3       1.0  0.12700  0.94800  0.16500  1.0000
  Ru  Ru4       1.0  0.62700  0.46100  0.17900  1.0000
  Ru  Ru5       1.0  0.37300  0.33500  0.32100  1.0000
  Ru  Ru6       1.0  0.87300  0.32100  0.33500  1.0000
  Ru  Ru7       1.0  0.62700  0.96100  0.44800  1.0000
  Ru  Ru8       1.0  0.12700  0.17900  0.46100  1.0000
  Ru  Ru9       1.0  0.87300  0.82100  0.53900  1.0000
  Ru  Ru10      1.0  0.37300  0.03890  0.55200  1.0000
  Ru  Ru11      1.0  0.12700  0.67900  0.66500  1.0000
  Ru  Ru12      1.0  0.62700  0.66500  0.67900  1.0000
  Ru  Ru13      1.0  0.37300  0.53900  0.82100  1.0000
  Ru  Ru14      1.0  0.87300  0.05210  0.83500  1.0000
  Ru  Ru15      1.0  0.62700  0.16500  0.94800  1.0000
  Ru  Ru16      1.0  0.12700  0.44800  0.96100  1.0000
  Tb  Tb1       1.0  0.75000  0.87500  0.12500  1.0000
  Tb  Tb2       1.0  0.25000  0.62500  0.37500  1.0000
  Tb  Tb3       1.0  0.75000  0.37500  0.62500  1.0000
  Tb  Tb4       1.0  0.25000  0.12500  0.87500  1.0000
