data_image0
_chemical_formula_structural       C4H16Mg2N4O8S4
_chemical_formula_sum              "C4 H16 Mg2 N4 O8 S4"
_cell_length_a       7.15023
_cell_length_b       8.84236
_cell_length_c       7.60813
_cell_angle_alpha    90
_cell_angle_beta     113.098
_cell_angle_gamma    90

_space_group_name_H-M_alt    "P 1"
_space_group_IT_number       1

loop_
  _space_group_symop_operation_xyz
  'x, y, z'

loop_
  _atom_site_type_symbol
  _atom_site_label
  _atom_site_symmetry_multiplicity
  _atom_site_fract_x
  _atom_site_fract_y
  _atom_site_fract_z
  _atom_site_occupancy
  C   C1        1.0  0.14300  0.29400  0.28000  1.0000
  C   C2        1.0  0.64300  0.20600  0.28000  1.0000
  C   C3        1.0  0.85700  0.70600  0.72000  1.0000
  C   C4        1.0  0.35700  0.79400  0.72000  1.0000
  H   H1        1.0  0.82700  0.69800  0.12200  1.0000
  H   H2        1.0  0.32700  0.80200  0.12200  1.0000
  H   H3        1.0  0.89700  0.53800  0.21200  1.0000
  H   H4        1.0  0.39700  0.96200  0.21200  1.0000
  H   H5        1.0  0.83700  0.93900  0.25300  1.0000
  H   H6        1.0  0.33700  0.56100  0.25300  1.0000
  H   H7        1.0  0.05800  0.87600  0.32800  1.0000
  H   H8        1.0  0.55800  0.62400  0.32800  1.0000
  H   H9        1.0  0.44200  0.37600  0.67200  1.0000
  H   H10       1.0  0.94200  0.12400  0.67200  1.0000
  H   H11       1.0  0.66300  0.43900  0.74700  1.0000
  H   H12       1.0  0.16300  0.06150  0.74700  1.0000
  H   H13       1.0  0.60300  0.03790  0.78800  1.0000
  H   H14       1.0  0.10300  0.46200  0.78800  1.0000
  H   H15       1.0  0.67300  0.19800  0.87800  1.0000
  H   H16       1.0  0.17300  0.30200  0.87800  1.0000
  Mg  Mg1       1.0  0.00000  0.00000  0.00000  1.0000
  Mg  Mg2       1.0  0.50000  0.50000  0.00000  1.0000
  N   N1        1.0  0.60600  0.31600  0.18500  1.0000
  N   N2        1.0  0.10600  0.18400  0.18500  1.0000
  N   N3        1.0  0.89400  0.81600  0.81500  1.0000
  N   N4        1.0  0.39400  0.68400  0.81500  1.0000
  O   O1        1.0  0.78600  0.59000  0.10700  1.0000
  O   O2        1.0  0.28600  0.91000  0.10700  1.0000
  O   O3        1.0  0.43100  0.61900  0.21000  1.0000
  O   O4        1.0  0.93100  0.88100  0.21000  1.0000
  O   O5        1.0  0.06900  0.11900  0.79000  1.0000
  O   O6        1.0  0.56900  0.38100  0.79000  1.0000
  O   O7        1.0  0.21400  0.41000  0.89300  1.0000
  O   O8        1.0  0.71400  0.09030  0.89300  1.0000
  S   S1        1.0  0.68900  0.05500  0.41300  1.0000
  S   S2        1.0  0.18900  0.44500  0.41300  1.0000
  S   S3        1.0  0.31100  0.94500  0.58700  1.0000
  S   S4        1.0  0.81100  0.55500  0.58700  1.0000
