data_image0
_chemical_formula_structural       C4H20N4O10
_chemical_formula_sum              "C4 H20 N4 O10"
_cell_length_a       7.81443
_cell_length_b       10.1803
_cell_length_c       3.57658
_cell_angle_alpha    90
_cell_angle_beta     90
_cell_angle_gamma    90

_space_group_name_H-M_alt    "P 1"
_space_group_IT_number       1

loop_
  _space_group_symop_operation_xyz
  'x, y, z'

loop_
  _atom_site_type_symbol
  _atom_site_label
  _atom_site_symmetry_multiplicity
  _atom_site_fract_x
  _atom_site_fract_y
  _atom_site_fract_z
  _atom_site_occupancy
  C   C1        1.0  0.09490  0.02300  0.06570  1.0000
  C   C2        1.0  0.90500  0.97700  0.06570  1.0000
  C   C3        1.0  0.59500  0.47700  0.93400  1.0000
  C   C4        1.0  0.40500  0.52300  0.93400  1.0000
  H   H1        1.0  0.10100  0.47900  0.02980  1.0000
  H   H2        1.0  0.89900  0.52100  0.02980  1.0000
  H   H3        1.0  0.28900  0.19500  0.26700  1.0000
  H   H4        1.0  0.71100  0.80500  0.26700  1.0000
  H   H5        1.0  0.48400  0.26800  0.26700  1.0000
  H   H6        1.0  0.51600  0.73200  0.26700  1.0000
  H   H7        1.0  0.85000  0.20500  0.37400  1.0000
  H   H8        1.0  0.15000  0.79500  0.37400  1.0000
  H   H9        1.0  0.93900  0.35900  0.42200  1.0000
  H   H10       1.0  0.06110  0.64100  0.42200  1.0000
  H   H11       1.0  0.43900  0.14100  0.57800  1.0000
  H   H12       1.0  0.56100  0.85900  0.57800  1.0000
  H   H13       1.0  0.35000  0.29500  0.62600  1.0000
  H   H14       1.0  0.65000  0.70500  0.62600  1.0000
  H   H15       1.0  0.98400  0.23200  0.73300  1.0000
  H   H16       1.0  0.01570  0.76800  0.73300  1.0000
  H   H17       1.0  0.78900  0.30500  0.73300  1.0000
  H   H18       1.0  0.21100  0.69500  0.73300  1.0000
  H   H19       1.0  0.60100  0.02130  0.97000  1.0000
  H   H20       1.0  0.39900  0.97900  0.97000  1.0000
  N   N1        1.0  0.39100  0.22400  0.43700  1.0000
  N   N2        1.0  0.60900  0.77600  0.43700  1.0000
  N   N3        1.0  0.89100  0.27600  0.56300  1.0000
  N   N4        1.0  0.10900  0.72400  0.56300  1.0000
  O   O1        1.0  0.62400  0.35700  0.00682  1.0000
  O   O2        1.0  0.37600  0.64300  0.00682  1.0000
  O   O3        1.0  0.79200  0.06190  0.14100  1.0000
  O   O4        1.0  0.20800  0.93800  0.14100  1.0000
  O   O5        1.0  0.00000  0.50000  0.19100  1.0000
  O   O6        1.0  0.50000  0.00000  0.80900  1.0000
  O   O7        1.0  0.29200  0.43800  0.85900  1.0000
  O   O8        1.0  0.70800  0.56200  0.85900  1.0000
  O   O9        1.0  0.12400  0.14300  0.99300  1.0000
  O   O10       1.0  0.87600  0.85700  0.99300  1.0000
