data_image0
_chemical_formula_structural       C3H20N4O10
_chemical_formula_sum              "C3 H20 N4 O10"
_cell_length_a       6.21104
_cell_length_b       6.21104
_cell_length_c       8.50087
_cell_angle_alpha    102.562
_cell_angle_beta     102.562
_cell_angle_gamma    113.87

_space_group_name_H-M_alt    "P 1"
_space_group_IT_number       1

loop_
  _space_group_symop_operation_xyz
  'x, y, z'

loop_
  _atom_site_type_symbol
  _atom_site_label
  _atom_site_symmetry_multiplicity
  _atom_site_fract_x
  _atom_site_fract_y
  _atom_site_fract_z
  _atom_site_occupancy
  C   C1        1.0  0.06820  0.93200  0.00000  1.0000
  C   C2        1.0  0.80700  0.64000  0.44800  1.0000
  C   C3        1.0  0.36000  0.19300  0.55200  1.0000
  H   H1        1.0  0.66000  0.44300  0.10300  1.0000
  H   H2        1.0  0.78200  0.05660  0.14800  1.0000
  H   H3        1.0  0.09180  0.36700  0.14800  1.0000
  H   H4        1.0  0.51300  0.01240  0.19100  1.0000
  H   H5        1.0  0.17800  0.67700  0.19100  1.0000
  H   H6        1.0  0.37900  0.58400  0.28800  1.0000
  H   H7        1.0  0.70400  0.90900  0.28800  1.0000
  H   H8        1.0  0.20800  0.09710  0.30600  1.0000
  H   H9        1.0  0.79600  0.22500  0.34000  1.0000
  H   H10       1.0  0.11500  0.54500  0.34000  1.0000
  H   H11       1.0  0.77500  0.20400  0.66000  1.0000
  H   H12       1.0  0.45500  0.88500  0.66000  1.0000
  H   H13       1.0  0.90300  0.79200  0.69400  1.0000
  H   H14       1.0  0.09120  0.29600  0.71200  1.0000
  H   H15       1.0  0.41600  0.62100  0.71200  1.0000
  H   H16       1.0  0.98800  0.48700  0.80900  1.0000
  H   H17       1.0  0.32300  0.82200  0.80900  1.0000
  H   H18       1.0  0.94300  0.21800  0.85200  1.0000
  H   H19       1.0  0.63300  0.90800  0.85200  1.0000
  H   H20       1.0  0.55700  0.34000  0.89700  1.0000
  N   N1        1.0  0.69800  0.04990  0.24200  1.0000
  N   N2        1.0  0.19200  0.54400  0.24200  1.0000
  N   N3        1.0  0.95000  0.30200  0.75800  1.0000
  N   N4        1.0  0.45600  0.80800  0.75800  1.0000
  O   O1        1.0  0.94400  0.05620  0.00000  1.0000
  O   O2        1.0  0.66400  0.33600  0.00000  1.0000
  O   O3        1.0  0.20200  0.94100  0.14300  1.0000
  O   O4        1.0  0.68000  0.62000  0.30000  1.0000
  O   O5        1.0  0.21200  0.20700  0.41900  1.0000
  O   O6        1.0  0.94200  0.53400  0.47600  1.0000
  O   O7        1.0  0.46600  0.05820  0.52400  1.0000
  O   O8        1.0  0.79300  0.78800  0.58100  1.0000
  O   O9        1.0  0.38000  0.32000  0.70000  1.0000
  O   O10       1.0  0.05900  0.79800  0.85700  1.0000
