data_image0
_chemical_formula_structural       Ni34Th4
_chemical_formula_sum              "Ni34 Th4"
_cell_length_a       8.33304
_cell_length_b       8.33315
_cell_length_c       8.05689
_cell_angle_alpha    90
_cell_angle_beta     90
_cell_angle_gamma    120

_space_group_name_H-M_alt    "P 1"
_space_group_IT_number       1

loop_
  _space_group_symop_operation_xyz
  'x, y, z'

loop_
  _atom_site_type_symbol
  _atom_site_label
  _atom_site_symmetry_multiplicity
  _atom_site_fract_x
  _atom_site_fract_y
  _atom_site_fract_z
  _atom_site_occupancy
  Ni  Ni1       1.0  0.50000  0.00000  0.00000  1.0000
  Ni  Ni2       1.0  0.00000  0.50000  0.00000  1.0000
  Ni  Ni3       1.0  0.50000  0.50000  0.00000  1.0000
  Ni  Ni4       1.0  0.33100  0.16600  0.02100  1.0000
  Ni  Ni5       1.0  0.83400  0.16600  0.02100  1.0000
  Ni  Ni6       1.0  0.83400  0.66900  0.02100  1.0000
  Ni  Ni7       1.0  0.33300  0.66700  0.10200  1.0000
  Ni  Ni8       1.0  0.04500  0.37300  0.25000  1.0000
  Ni  Ni9       1.0  0.32800  0.37300  0.25000  1.0000
  Ni  Ni10      1.0  0.04500  0.67200  0.25000  1.0000
  Ni  Ni11      1.0  0.62700  0.67200  0.25000  1.0000
  Ni  Ni12      1.0  0.32800  0.95500  0.25000  1.0000
  Ni  Ni13      1.0  0.62700  0.95500  0.25000  1.0000
  Ni  Ni14      1.0  0.33300  0.66700  0.39800  1.0000
  Ni  Ni15      1.0  0.83400  0.66900  0.47900  1.0000
  Ni  Ni16      1.0  0.33100  0.16600  0.47900  1.0000
  Ni  Ni17      1.0  0.83400  0.16600  0.47900  1.0000
  Ni  Ni18      1.0  0.50000  0.00000  0.50000  1.0000
  Ni  Ni19      1.0  0.00000  0.50000  0.50000  1.0000
  Ni  Ni20      1.0  0.50000  0.50000  0.50000  1.0000
  Ni  Ni21      1.0  0.16600  0.83400  0.52100  1.0000
  Ni  Ni22      1.0  0.66900  0.83400  0.52100  1.0000
  Ni  Ni23      1.0  0.16600  0.33100  0.52100  1.0000
  Ni  Ni24      1.0  0.66700  0.33300  0.60200  1.0000
  Ni  Ni25      1.0  0.37300  0.04500  0.75000  1.0000
  Ni  Ni26      1.0  0.67200  0.04500  0.75000  1.0000
  Ni  Ni27      1.0  0.37300  0.32800  0.75000  1.0000
  Ni  Ni28      1.0  0.95500  0.32800  0.75000  1.0000
  Ni  Ni29      1.0  0.67200  0.62700  0.75000  1.0000
  Ni  Ni30      1.0  0.95500  0.62700  0.75000  1.0000
  Ni  Ni31      1.0  0.66700  0.33300  0.89800  1.0000
  Ni  Ni32      1.0  0.16600  0.33100  0.97900  1.0000
  Ni  Ni33      1.0  0.16600  0.83400  0.97900  1.0000
  Ni  Ni34      1.0  0.66900  0.83400  0.97900  1.0000
  Th  Th1       1.0  0.00000  0.00000  0.25000  1.0000
  Th  Th2       1.0  0.66700  0.33300  0.25000  1.0000
  Th  Th3       1.0  0.00000  0.00000  0.75000  1.0000
  Th  Th4       1.0  0.33300  0.66700  0.75000  1.0000
