data_image0
_chemical_formula_structural       C8H8O20Th2
_chemical_formula_sum              "C8 H8 O20 Th2"
_cell_length_a       6.36717
_cell_length_b       6.36717
_cell_length_c       9.99761
_cell_angle_alpha    89.5292
_cell_angle_beta     89.5292
_cell_angle_gamma    80.1195

_space_group_name_H-M_alt    "P 1"
_space_group_IT_number       1

loop_
  _space_group_symop_operation_xyz
  'x, y, z'

loop_
  _atom_site_type_symbol
  _atom_site_label
  _atom_site_symmetry_multiplicity
  _atom_site_fract_x
  _atom_site_fract_y
  _atom_site_fract_z
  _atom_site_occupancy
  C   C1        1.0  0.96400  0.89600  0.02300  1.0000
  C   C2        1.0  0.49200  0.60600  0.03700  1.0000
  C   C3        1.0  0.39400  0.50800  0.46300  1.0000
  C   C4        1.0  0.10400  0.03640  0.47700  1.0000
  C   C5        1.0  0.89600  0.96400  0.52300  1.0000
  C   C6        1.0  0.60600  0.49200  0.53700  1.0000
  C   C7        1.0  0.50800  0.39400  0.96300  1.0000
  C   C8        1.0  0.03640  0.10400  0.97700  1.0000
  H   H1        1.0  0.50600  0.87400  0.20400  1.0000
  H   H2        1.0  0.94500  0.66300  0.21800  1.0000
  H   H3        1.0  0.33700  0.05470  0.28200  1.0000
  H   H4        1.0  0.12600  0.49400  0.29600  1.0000
  H   H5        1.0  0.87400  0.50600  0.70400  1.0000
  H   H6        1.0  0.66300  0.94500  0.71800  1.0000
  H   H7        1.0  0.05470  0.33700  0.78200  1.0000
  H   H8        1.0  0.49400  0.12600  0.79600  1.0000
  O   O1        1.0  0.60900  0.23100  0.01820  1.0000
  O   O2        1.0  0.02380  0.25300  0.05880  1.0000
  O   O3        1.0  0.89800  0.89500  0.14400  1.0000
  O   O4        1.0  0.58200  0.60000  0.15100  1.0000
  O   O5        1.0  0.47400  0.02550  0.23100  1.0000
  O   O6        1.0  0.97500  0.52600  0.26900  1.0000
  O   O7        1.0  0.40000  0.41800  0.34900  1.0000
  O   O8        1.0  0.10500  0.10200  0.35600  1.0000
  O   O9        1.0  0.74700  0.97600  0.44100  1.0000
  O   O10       1.0  0.76900  0.39100  0.48200  1.0000
  O   O11       1.0  0.23100  0.60900  0.51800  1.0000
  O   O12       1.0  0.25300  0.02380  0.55900  1.0000
  O   O13       1.0  0.89500  0.89800  0.64400  1.0000
  O   O14       1.0  0.60000  0.58200  0.65100  1.0000
  O   O15       1.0  0.02550  0.47400  0.73100  1.0000
  O   O16       1.0  0.52600  0.97500  0.76900  1.0000
  O   O17       1.0  0.41800  0.40000  0.84900  1.0000
  O   O18       1.0  0.10200  0.10500  0.85600  1.0000
  O   O19       1.0  0.97600  0.74700  0.94100  1.0000
  O   O20       1.0  0.39100  0.76900  0.98200  1.0000
  Th  Th1       1.0  0.75500  0.24500  0.25000  1.0000
  Th  Th2       1.0  0.24500  0.75500  0.75000  1.0000
