data_image0
_chemical_formula_structural       AlHo2Si2
_chemical_formula_sum              "Al1 Ho2 Si2"
_cell_length_a       4.05146
_cell_length_b       5.57539
_cell_length_c       5.57539
_cell_angle_alpha    101.789
_cell_angle_beta     111.305
_cell_angle_gamma    111.305

_space_group_name_H-M_alt    "P 1"
_space_group_IT_number       1

loop_
  _space_group_symop_operation_xyz
  'x, y, z'

loop_
  _atom_site_type_symbol
  _atom_site_label
  _atom_site_symmetry_multiplicity
  _atom_site_fract_x
  _atom_site_fract_y
  _atom_site_fract_z
  _atom_site_occupancy
  Al  Al1       1.0  0.00000  0.00000  0.00000  1.0000
  Ho  Ho1       1.0  0.50000  0.71200  0.28800  1.0000
  Ho  Ho2       1.0  0.50000  0.28800  0.71200  1.0000
  Si  Si1       1.0  0.79000  0.29000  0.29000  1.0000
  Si  Si2       1.0  0.21000  0.71000  0.71000  1.0000
