data_image0
_chemical_formula_structural       Ru2Si2Th
_chemical_formula_sum              "Ru2 Si2 Th1"
_cell_length_a       4.22243
_cell_length_b       4.22243
_cell_length_c       5.72644
_cell_angle_alpha    111.634
_cell_angle_beta     111.634
_cell_angle_gamma    90

_space_group_name_H-M_alt    "P 1"
_space_group_IT_number       1

loop_
  _space_group_symop_operation_xyz
  'x, y, z'

loop_
  _atom_site_type_symbol
  _atom_site_label
  _atom_site_symmetry_multiplicity
  _atom_site_fract_x
  _atom_site_fract_y
  _atom_site_fract_z
  _atom_site_occupancy
  Ru  Ru1       1.0  0.75000  0.25000  0.50000  1.0000
  Ru  Ru2       1.0  0.25000  0.75000  0.50000  1.0000
  Si  Si1       1.0  0.63100  0.63100  0.26300  1.0000
  Si  Si2       1.0  0.36900  0.36900  0.73700  1.0000
  Th  Th1       1.0  0.00000  0.00000  0.00000  1.0000
