data_image0
_chemical_formula_structural       B12Dy2Ni24
_chemical_formula_sum              "B12 Dy2 Ni24"
_cell_length_a       6.03697
_cell_length_b       6.03697
_cell_length_c       10.9848
_cell_angle_alpha    90
_cell_angle_beta     90
_cell_angle_gamma    75.2802

_space_group_name_H-M_alt    "P 1"
_space_group_IT_number       1

loop_
  _space_group_symop_operation_xyz
  'x, y, z'

loop_
  _atom_site_type_symbol
  _atom_site_label
  _atom_site_symmetry_multiplicity
  _atom_site_fract_x
  _atom_site_fract_y
  _atom_site_fract_z
  _atom_site_occupancy
  B   B1        1.0  0.40100  0.01160  0.12300  1.0000
  B   B2        1.0  0.98800  0.59900  0.12300  1.0000
  B   B3        1.0  0.48800  0.51200  0.15400  1.0000
  B   B4        1.0  0.83600  0.16400  0.33900  1.0000
  B   B5        1.0  0.32700  0.24300  0.38500  1.0000
  B   B6        1.0  0.75700  0.67300  0.38500  1.0000
  B   B7        1.0  0.01160  0.40100  0.62300  1.0000
  B   B8        1.0  0.59900  0.98800  0.62300  1.0000
  B   B9        1.0  0.51200  0.48800  0.65400  1.0000
  B   B10       1.0  0.16400  0.83600  0.83900  1.0000
  B   B11       1.0  0.24300  0.32700  0.88500  1.0000
  B   B12       1.0  0.67300  0.75700  0.88500  1.0000
  Dy  Dy1       1.0  0.16600  0.83400  0.49600  1.0000
  Dy  Dy2       1.0  0.83400  0.16600  0.99600  1.0000
  Ni  Ni1       1.0  0.27000  0.34100  0.06770  1.0000
  Ni  Ni2       1.0  0.65900  0.73000  0.06770  1.0000
  Ni  Ni3       1.0  0.21800  0.78200  0.09860  1.0000
  Ni  Ni4       1.0  0.54400  0.19500  0.23400  1.0000
  Ni  Ni5       1.0  0.80500  0.45600  0.23400  1.0000
  Ni  Ni6       1.0  0.14500  0.11900  0.25600  1.0000
  Ni  Ni7       1.0  0.88100  0.85500  0.25600  1.0000
  Ni  Ni8       1.0  0.21300  0.52600  0.27600  1.0000
  Ni  Ni9       1.0  0.47400  0.78700  0.27600  1.0000
  Ni  Ni10      1.0  0.56500  0.43500  0.41900  1.0000
  Ni  Ni11      1.0  0.63100  0.00313  0.43700  1.0000
  Ni  Ni12      1.0  0.99700  0.36900  0.43700  1.0000
  Ni  Ni13      1.0  0.34100  0.27000  0.56800  1.0000
  Ni  Ni14      1.0  0.73000  0.65900  0.56800  1.0000
  Ni  Ni15      1.0  0.78200  0.21800  0.59900  1.0000
  Ni  Ni16      1.0  0.19500  0.54400  0.73400  1.0000
  Ni  Ni17      1.0  0.45600  0.80500  0.73400  1.0000
  Ni  Ni18      1.0  0.11900  0.14500  0.75600  1.0000
  Ni  Ni19      1.0  0.85500  0.88100  0.75600  1.0000
  Ni  Ni20      1.0  0.52600  0.21300  0.77600  1.0000
  Ni  Ni21      1.0  0.78700  0.47400  0.77600  1.0000
  Ni  Ni22      1.0  0.43500  0.56500  0.91900  1.0000
  Ni  Ni23      1.0  0.00313  0.63100  0.93700  1.0000
  Ni  Ni24      1.0  0.36900  0.99700  0.93700  1.0000
