data_image0
_chemical_formula_structural       Ga2Na4O6
_chemical_formula_sum              "Ga2 Na4 O6"
_cell_length_a       5.35357
_cell_length_b       5.35357
_cell_length_c       5.64116
_cell_angle_alpha    99.3375
_cell_angle_beta     99.3375
_cell_angle_gamma    119.869

_space_group_name_H-M_alt    "P 1"
_space_group_IT_number       1

loop_
  _space_group_symop_operation_xyz
  'x, y, z'

loop_
  _atom_site_type_symbol
  _atom_site_label
  _atom_site_symmetry_multiplicity
  _atom_site_fract_x
  _atom_site_fract_y
  _atom_site_fract_z
  _atom_site_occupancy
  Ga  Ga1       1.0  0.83400  0.16600  0.00017  1.0000
  Ga  Ga2       1.0  0.16600  0.83400  0.00017  1.0000
  Na  Na1       1.0  0.50000  0.50000  0.00013  1.0000
  Na  Na2       1.0  0.65700  0.34300  0.50000  1.0000
  Na  Na3       1.0  0.34300  0.65700  0.50000  1.0000
  Na  Na4       1.0  0.00000  0.00000  0.50000  1.0000
  O   O1        1.0  0.94400  0.57100  0.20800  1.0000
  O   O2        1.0  0.57100  0.94400  0.20800  1.0000
  O   O3        1.0  0.20000  0.20000  0.21100  1.0000
  O   O4        1.0  0.80000  0.80000  0.78900  1.0000
  O   O5        1.0  0.42900  0.05590  0.79200  1.0000
  O   O6        1.0  0.05590  0.42900  0.79200  1.0000
