data_image0
_chemical_formula_structural       Dy10Ge20Ir8
_chemical_formula_sum              "Dy10 Ge20 Ir8"
_cell_length_a       13.0368
_cell_length_b       13.0368
_cell_length_c       4.33333
_cell_angle_alpha    90
_cell_angle_beta     90
_cell_angle_gamma    90

_space_group_name_H-M_alt    "P 1"
_space_group_IT_number       1

loop_
  _space_group_symop_operation_xyz
  'x, y, z'

loop_
  _atom_site_type_symbol
  _atom_site_label
  _atom_site_symmetry_multiplicity
  _atom_site_fract_x
  _atom_site_fract_y
  _atom_site_fract_z
  _atom_site_occupancy
  Dy  Dy1       1.0  0.00000  0.00000  0.00000  1.0000
  Dy  Dy2       1.0  0.50000  0.50000  0.00000  1.0000
  Dy  Dy3       1.0  0.61500  0.11500  0.50000  1.0000
  Dy  Dy4       1.0  0.32600  0.17400  0.50000  1.0000
  Dy  Dy5       1.0  0.82600  0.32600  0.50000  1.0000
  Dy  Dy6       1.0  0.11500  0.38500  0.50000  1.0000
  Dy  Dy7       1.0  0.88500  0.61500  0.50000  1.0000
  Dy  Dy8       1.0  0.17400  0.67400  0.50000  1.0000
  Dy  Dy9       1.0  0.67400  0.82600  0.50000  1.0000
  Dy  Dy10      1.0  0.38500  0.88500  0.50000  1.0000
  Ge  Ge1       1.0  0.43300  0.06720  0.00000  1.0000
  Ge  Ge2       1.0  0.80000  0.16300  0.00000  1.0000
  Ge  Ge3       1.0  0.16300  0.20000  0.00000  1.0000
  Ge  Ge4       1.0  0.66300  0.30000  0.00000  1.0000
  Ge  Ge5       1.0  0.30000  0.33700  0.00000  1.0000
  Ge  Ge6       1.0  0.93300  0.43300  0.00000  1.0000
  Ge  Ge7       1.0  0.06720  0.56700  0.00000  1.0000
  Ge  Ge8       1.0  0.70000  0.66300  0.00000  1.0000
  Ge  Ge9       1.0  0.33700  0.70000  0.00000  1.0000
  Ge  Ge10      1.0  0.83700  0.80000  0.00000  1.0000
  Ge  Ge11      1.0  0.20000  0.83700  0.00000  1.0000
  Ge  Ge12      1.0  0.56700  0.93300  0.00000  1.0000
  Ge  Ge13      1.0  0.15600  0.00604  0.50000  1.0000
  Ge  Ge14      1.0  0.99400  0.15600  0.50000  1.0000
  Ge  Ge15      1.0  0.49400  0.34400  0.50000  1.0000
  Ge  Ge16      1.0  0.65600  0.49400  0.50000  1.0000
  Ge  Ge17      1.0  0.34400  0.50600  0.50000  1.0000
  Ge  Ge18      1.0  0.50600  0.65600  0.50000  1.0000
  Ge  Ge19      1.0  0.00604  0.84400  0.50000  1.0000
  Ge  Ge20      1.0  0.84400  0.99400  0.50000  1.0000
  Ir  Ir1       1.0  0.24600  0.02010  0.00000  1.0000
  Ir  Ir2       1.0  0.98000  0.24600  0.00000  1.0000
  Ir  Ir3       1.0  0.48000  0.25400  0.00000  1.0000
  Ir  Ir4       1.0  0.74600  0.48000  0.00000  1.0000
  Ir  Ir5       1.0  0.25400  0.52000  0.00000  1.0000
  Ir  Ir6       1.0  0.52000  0.74600  0.00000  1.0000
  Ir  Ir7       1.0  0.02010  0.75400  0.00000  1.0000
  Ir  Ir8       1.0  0.75400  0.98000  0.00000  1.0000
