data_image0
_chemical_formula_structural       C8H8O20U2
_chemical_formula_sum              "C8 H8 O20 U2"
_cell_length_a       6.43316
_cell_length_b       6.43316
_cell_length_c       9.55448
_cell_angle_alpha    89.6931
_cell_angle_beta     89.6931
_cell_angle_gamma    82.2414

_space_group_name_H-M_alt    "P 1"
_space_group_IT_number       1

loop_
  _space_group_symop_operation_xyz
  'x, y, z'

loop_
  _atom_site_type_symbol
  _atom_site_label
  _atom_site_symmetry_multiplicity
  _atom_site_fract_x
  _atom_site_fract_y
  _atom_site_fract_z
  _atom_site_occupancy
  C   C1        1.0  0.97000  0.89600  0.02760  1.0000
  C   C2        1.0  0.50900  0.59900  0.04100  1.0000
  C   C3        1.0  0.40100  0.49100  0.45900  1.0000
  C   C4        1.0  0.10400  0.03040  0.47200  1.0000
  C   C5        1.0  0.89600  0.97000  0.52800  1.0000
  C   C6        1.0  0.59900  0.50900  0.54100  1.0000
  C   C7        1.0  0.49100  0.40100  0.95900  1.0000
  C   C8        1.0  0.03040  0.10400  0.97200  1.0000
  H   H1        1.0  0.46000  0.94100  0.14600  1.0000
  H   H2        1.0  0.93100  0.66000  0.22600  1.0000
  H   H3        1.0  0.34000  0.06890  0.27400  1.0000
  H   H4        1.0  0.05880  0.54000  0.35400  1.0000
  H   H5        1.0  0.94100  0.46000  0.64600  1.0000
  H   H6        1.0  0.66000  0.93100  0.72600  1.0000
  H   H7        1.0  0.06890  0.34000  0.77400  1.0000
  H   H8        1.0  0.54000  0.05880  0.85400  1.0000
  O   O1        1.0  0.58300  0.22900  0.00834  1.0000
  O   O2        1.0  0.99500  0.26300  0.04860  1.0000
  O   O3        1.0  0.88600  0.90200  0.14900  1.0000
  O   O4        1.0  0.61400  0.58000  0.15200  1.0000
  O   O5        1.0  0.47900  0.01770  0.23300  1.0000
  O   O6        1.0  0.98200  0.52100  0.26700  1.0000
  O   O7        1.0  0.42000  0.38600  0.34800  1.0000
  O   O8        1.0  0.09770  0.11400  0.35100  1.0000
  O   O9        1.0  0.73700  0.00517  0.45100  1.0000
  O   O10       1.0  0.77100  0.41700  0.49200  1.0000
  O   O11       1.0  0.22900  0.58300  0.50800  1.0000
  O   O12       1.0  0.26300  0.99500  0.54900  1.0000
  O   O13       1.0  0.90200  0.88600  0.64900  1.0000
  O   O14       1.0  0.58000  0.61400  0.65200  1.0000
  O   O15       1.0  0.01770  0.47900  0.73300  1.0000
  O   O16       1.0  0.52100  0.98200  0.76700  1.0000
  O   O17       1.0  0.38600  0.42000  0.84800  1.0000
  O   O18       1.0  0.11400  0.09770  0.85100  1.0000
  O   O19       1.0  0.00517  0.73700  0.95100  1.0000
  O   O20       1.0  0.41700  0.77100  0.99200  1.0000
  U   U1        1.0  0.75500  0.24500  0.25000  1.0000
  U   U2        1.0  0.24500  0.75500  0.75000  1.0000
