data_image0
_chemical_formula_structural       Ba3Nb6O26Si4
_chemical_formula_sum              "Ba3 Nb6 O26 Si4"
_cell_length_a       9.04312
_cell_length_b       9.04312
_cell_length_c       7.70529
_cell_angle_alpha    90
_cell_angle_beta     90
_cell_angle_gamma    120

_space_group_name_H-M_alt    "P 1"
_space_group_IT_number       1

loop_
  _space_group_symop_operation_xyz
  'x, y, z'

loop_
  _atom_site_type_symbol
  _atom_site_label
  _atom_site_symmetry_multiplicity
  _atom_site_fract_x
  _atom_site_fract_y
  _atom_site_fract_z
  _atom_site_occupancy
  Ba  Ba1       1.0  0.60600  0.00000  0.50000  1.0000
  Ba  Ba2       1.0  0.39400  0.39400  0.50000  1.0000
  Ba  Ba3       1.0  0.00000  0.60600  0.50000  1.0000
  Nb  Nb1       1.0  0.23900  0.00000  0.24100  1.0000
  Nb  Nb2       1.0  0.00000  0.23900  0.24100  1.0000
  Nb  Nb3       1.0  0.76100  0.76100  0.24100  1.0000
  Nb  Nb4       1.0  0.76100  0.76100  0.75900  1.0000
  Nb  Nb5       1.0  0.23900  0.00000  0.75900  1.0000
  Nb  Nb6       1.0  0.00000  0.23900  0.75900  1.0000
  O   O1        1.0  0.29800  0.00000  0.00000  1.0000
  O   O2        1.0  0.00000  0.29800  0.00000  1.0000
  O   O3        1.0  0.66700  0.33300  0.00000  1.0000
  O   O4        1.0  0.33300  0.66700  0.00000  1.0000
  O   O5        1.0  0.70200  0.70200  0.00000  1.0000
  O   O6        1.0  0.81900  0.00000  0.21700  1.0000
  O   O7        1.0  0.00000  0.81900  0.21700  1.0000
  O   O8        1.0  0.18100  0.18100  0.21700  1.0000
  O   O9        1.0  0.69400  0.51100  0.29100  1.0000
  O   O10       1.0  0.51100  0.69400  0.29100  1.0000
  O   O11       1.0  0.81700  0.30600  0.29100  1.0000
  O   O12       1.0  0.30600  0.81700  0.29100  1.0000
  O   O13       1.0  0.48900  0.18300  0.29100  1.0000
  O   O14       1.0  0.18300  0.48900  0.29100  1.0000
  O   O15       1.0  0.21400  0.00000  0.50000  1.0000
  O   O16       1.0  0.00000  0.21400  0.50000  1.0000
  O   O17       1.0  0.78600  0.78600  0.50000  1.0000
  O   O18       1.0  0.48900  0.18300  0.70900  1.0000
  O   O19       1.0  0.18300  0.48900  0.70900  1.0000
  O   O20       1.0  0.81700  0.30600  0.70900  1.0000
  O   O21       1.0  0.30600  0.81700  0.70900  1.0000
  O   O22       1.0  0.69400  0.51100  0.70900  1.0000
  O   O23       1.0  0.51100  0.69400  0.70900  1.0000
  O   O24       1.0  0.18100  0.18100  0.78300  1.0000
  O   O25       1.0  0.81900  0.00000  0.78300  1.0000
  O   O26       1.0  0.00000  0.81900  0.78300  1.0000
  Si  Si1       1.0  0.66700  0.33300  0.20900  1.0000
  Si  Si2       1.0  0.33300  0.66700  0.20900  1.0000
  Si  Si3       1.0  0.66700  0.33300  0.79100  1.0000
  Si  Si4       1.0  0.33300  0.66700  0.79100  1.0000
