data_image0
_chemical_formula_structural       AgRb3
_chemical_formula_sum              "Ag1 Rb3"
_cell_length_a       7.26208
_cell_length_b       7.26208
_cell_length_c       7.26208
_cell_angle_alpha    131.701
_cell_angle_beta     131.701
_cell_angle_gamma    70.7014

_space_group_name_H-M_alt    "P 1"
_space_group_IT_number       1

loop_
  _space_group_symop_operation_xyz
  'x, y, z'

loop_
  _atom_site_type_symbol
  _atom_site_label
  _atom_site_symmetry_multiplicity
  _atom_site_fract_x
  _atom_site_fract_y
  _atom_site_fract_z
  _atom_site_occupancy
  Ag  Ag1       1.0  0.00000  0.00000  0.00000  1.0000
  Rb  Rb1       1.0  0.75000  0.25000  0.50000  1.0000
  Rb  Rb2       1.0  0.25000  0.75000  0.50000  1.0000
  Rb  Rb3       1.0  0.50000  0.50000  0.00000  1.0000
