data_image0
_chemical_formula_structural       ClI3
_chemical_formula_sum              "Cl1 I3"
_cell_length_a       8.02943
_cell_length_b       8.02943
_cell_length_c       8.02943
_cell_angle_alpha    148.241
_cell_angle_beta     148.241
_cell_angle_gamma    45.5292

_space_group_name_H-M_alt    "P 1"
_space_group_IT_number       1

loop_
  _space_group_symop_operation_xyz
  'x, y, z'

loop_
  _atom_site_type_symbol
  _atom_site_label
  _atom_site_symmetry_multiplicity
  _atom_site_fract_x
  _atom_site_fract_y
  _atom_site_fract_z
  _atom_site_occupancy
  Cl  Cl1       1.0  0.00000  0.00000  0.00000  1.0000
  I   I1        1.0  0.75000  0.25000  0.50000  1.0000
  I   I2        1.0  0.25000  0.75000  0.50000  1.0000
  I   I3        1.0  0.50000  0.50000  0.00000  1.0000
