data_image0
_chemical_formula_structural       Ca6Fe2
_chemical_formula_sum              "Ca6 Fe2"
_cell_length_a       6.97802
_cell_length_b       6.97803
_cell_length_c       5.11594
_cell_angle_alpha    90
_cell_angle_beta     90
_cell_angle_gamma    120

_space_group_name_H-M_alt    "P 1"
_space_group_IT_number       1

loop_
  _space_group_symop_operation_xyz
  'x, y, z'

loop_
  _atom_site_type_symbol
  _atom_site_label
  _atom_site_symmetry_multiplicity
  _atom_site_fract_x
  _atom_site_fract_y
  _atom_site_fract_z
  _atom_site_occupancy
  Ca  Ca1       1.0  0.18000  0.36000  0.25000  1.0000
  Ca  Ca2       1.0  0.64000  0.82000  0.25000  1.0000
  Ca  Ca3       1.0  0.18000  0.82000  0.25000  1.0000
  Ca  Ca4       1.0  0.82000  0.64000  0.75000  1.0000
  Ca  Ca5       1.0  0.36000  0.18000  0.75000  1.0000
  Ca  Ca6       1.0  0.82000  0.18000  0.75000  1.0000
  Fe  Fe1       1.0  0.33300  0.66700  0.75000  1.0000
  Fe  Fe2       1.0  0.66700  0.33300  0.25000  1.0000
