data_image0
_chemical_formula_structural       C4H16Li4O12P4
_chemical_formula_sum              "C4 H16 Li4 O12 P4"
_cell_length_a       9.09595
_cell_length_b       4.53807
_cell_length_c       9.22379
_cell_angle_alpha    90
_cell_angle_beta     95.913
_cell_angle_gamma    90

_space_group_name_H-M_alt    "P 1"
_space_group_IT_number       1

loop_
  _space_group_symop_operation_xyz
  'x, y, z'

loop_
  _atom_site_type_symbol
  _atom_site_label
  _atom_site_symmetry_multiplicity
  _atom_site_fract_x
  _atom_site_fract_y
  _atom_site_fract_z
  _atom_site_occupancy
  C   C1        1.0  0.12900  0.79100  0.15600  1.0000
  C   C2        1.0  0.87100  0.29100  0.34400  1.0000
  C   C3        1.0  0.12900  0.70900  0.65600  1.0000
  C   C4        1.0  0.87100  0.20900  0.84400  1.0000
  H   H1        1.0  0.72900  0.66900  0.03660  1.0000
  H   H2        1.0  0.04330  0.70500  0.07540  1.0000
  H   H3        1.0  0.08480  0.98300  0.20900  1.0000
  H   H4        1.0  0.16100  0.62300  0.23900  1.0000
  H   H5        1.0  0.83900  0.12300  0.26100  1.0000
  H   H6        1.0  0.91500  0.48300  0.29100  1.0000
  H   H7        1.0  0.95700  0.20500  0.42500  1.0000
  H   H8        1.0  0.27100  0.16900  0.46300  1.0000
  H   H9        1.0  0.72900  0.83100  0.53700  1.0000
  H   H10       1.0  0.04330  0.79500  0.57500  1.0000
  H   H11       1.0  0.08480  0.51700  0.70900  1.0000
  H   H12       1.0  0.16100  0.87700  0.73900  1.0000
  H   H13       1.0  0.83900  0.37700  0.76100  1.0000
  H   H14       1.0  0.91500  0.01660  0.79100  1.0000
  H   H15       1.0  0.95700  0.29500  0.92500  1.0000
  H   H16       1.0  0.27100  0.33100  0.96300  1.0000
  Li  Li1       1.0  0.50500  0.40500  0.14100  1.0000
  Li  Li2       1.0  0.49500  0.90500  0.35900  1.0000
  Li  Li3       1.0  0.50500  0.09530  0.64100  1.0000
  Li  Li4       1.0  0.49500  0.59500  0.85900  1.0000
  O   O1        1.0  0.35300  0.62600  0.00351  1.0000
  O   O2        1.0  0.76800  0.87800  0.05510  1.0000
  O   O3        1.0  0.40000  0.05390  0.18100  1.0000
  O   O4        1.0  0.60000  0.55400  0.31900  1.0000
  O   O5        1.0  0.23200  0.37800  0.44500  1.0000
  O   O6        1.0  0.64700  0.12600  0.49600  1.0000
  O   O7        1.0  0.35300  0.87400  0.50400  1.0000
  O   O8        1.0  0.76800  0.62200  0.55500  1.0000
  O   O9        1.0  0.40000  0.44600  0.68100  1.0000
  O   O10       1.0  0.60000  0.94600  0.81900  1.0000
  O   O11       1.0  0.23200  0.12200  0.94500  1.0000
  O   O12       1.0  0.64700  0.37400  0.99600  1.0000
  P   P1        1.0  0.28900  0.90100  0.07200  1.0000
  P   P2        1.0  0.71100  0.40100  0.42800  1.0000
  P   P3        1.0  0.28900  0.59900  0.57200  1.0000
  P   P4        1.0  0.71100  0.09950  0.92800  1.0000
