data_image0
_chemical_formula_structural       C2H8Na8O18P4
_chemical_formula_sum              "C2 H8 Na8 O18 P4"
_cell_length_a       8.35534
_cell_length_b       8.35534
_cell_length_c       6.37782
_cell_angle_alpha    90
_cell_angle_beta     90
_cell_angle_gamma    90

_space_group_name_H-M_alt    "P 1"
_space_group_IT_number       1

loop_
  _space_group_symop_operation_xyz
  'x, y, z'

loop_
  _atom_site_type_symbol
  _atom_site_label
  _atom_site_symmetry_multiplicity
  _atom_site_fract_x
  _atom_site_fract_y
  _atom_site_fract_z
  _atom_site_occupancy
  C   C1        1.0  0.50000  0.00000  0.36100  1.0000
  C   C2        1.0  0.00000  0.50000  0.63900  1.0000
  H   H1        1.0  0.43000  0.31700  0.29700  1.0000
  H   H2        1.0  0.57000  0.68300  0.29700  1.0000
  H   H3        1.0  0.32300  0.35400  0.49900  1.0000
  H   H4        1.0  0.67700  0.64600  0.49900  1.0000
  H   H5        1.0  0.64600  0.32300  0.50100  1.0000
  H   H6        1.0  0.35400  0.67700  0.50100  1.0000
  H   H7        1.0  0.68300  0.43000  0.70300  1.0000
  H   H8        1.0  0.31700  0.57000  0.70300  1.0000
  Na  Na1       1.0  0.80000  0.46500  0.13900  1.0000
  Na  Na2       1.0  0.20000  0.53500  0.13900  1.0000
  Na  Na3       1.0  0.07730  0.18200  0.29900  1.0000
  Na  Na4       1.0  0.92300  0.81800  0.29900  1.0000
  Na  Na5       1.0  0.81800  0.07730  0.70100  1.0000
  Na  Na6       1.0  0.18200  0.92300  0.70100  1.0000
  Na  Na7       1.0  0.46500  0.20000  0.86100  1.0000
  Na  Na8       1.0  0.53500  0.80000  0.86100  1.0000
  O   O1        1.0  0.01440  0.32500  0.00427  1.0000
  O   O2        1.0  0.98600  0.67500  0.00427  1.0000
  O   O3        1.0  0.60800  0.26900  0.20100  1.0000
  O   O4        1.0  0.39200  0.73100  0.20100  1.0000
  O   O5        1.0  0.82100  0.07550  0.33900  1.0000
  O   O6        1.0  0.17900  0.92400  0.33900  1.0000
  O   O7        1.0  0.31900  0.34300  0.34500  1.0000
  O   O8        1.0  0.68100  0.65700  0.34500  1.0000
  O   O9        1.0  0.00000  0.50000  0.44500  1.0000
  O   O10       1.0  0.50000  0.00000  0.55600  1.0000
  O   O11       1.0  0.65700  0.31900  0.65500  1.0000
  O   O12       1.0  0.34300  0.68100  0.65500  1.0000
  O   O13       1.0  0.07550  0.17900  0.66100  1.0000
  O   O14       1.0  0.92400  0.82100  0.66100  1.0000
  O   O15       1.0  0.26900  0.39200  0.79900  1.0000
  O   O16       1.0  0.73100  0.60800  0.79900  1.0000
  O   O17       1.0  0.67500  0.01440  0.99600  1.0000
  O   O18       1.0  0.32500  0.98600  0.99600  1.0000
  P   P1        1.0  0.66900  0.09340  0.21100  1.0000
  P   P2        1.0  0.33100  0.90700  0.21100  1.0000
  P   P3        1.0  0.09340  0.33100  0.78900  1.0000
  P   P4        1.0  0.90700  0.66900  0.78900  1.0000
