data_image0
_chemical_formula_structural       C8H12K2N8Na2O6Pt2
_chemical_formula_sum              "C8 H12 K2 N8 Na2 O6 Pt2"
_cell_length_a       6.24588
_cell_length_b       9.28916
_cell_length_c       9.28916
_cell_angle_alpha    93.934
_cell_angle_beta     106.1
_cell_angle_gamma    106.1

_space_group_name_H-M_alt    "P 1"
_space_group_IT_number       1

loop_
  _space_group_symop_operation_xyz
  'x, y, z'

loop_
  _atom_site_type_symbol
  _atom_site_label
  _atom_site_symmetry_multiplicity
  _atom_site_fract_x
  _atom_site_fract_y
  _atom_site_fract_z
  _atom_site_occupancy
  C   C1        1.0  0.46000  0.80800  0.09390  1.0000
  C   C2        1.0  0.15000  0.20800  0.11600  1.0000
  C   C3        1.0  0.03240  0.91700  0.18800  1.0000
  C   C4        1.0  0.65000  0.11600  0.20800  1.0000
  C   C5        1.0  0.35800  0.87600  0.79500  1.0000
  C   C6        1.0  0.96000  0.09390  0.80800  1.0000
  C   C7        1.0  0.85800  0.79500  0.87600  1.0000
  C   C8        1.0  0.53200  0.18800  0.91700  1.0000
  H   H1        1.0  0.65600  0.42800  0.14000  1.0000
  H   H2        1.0  0.70300  0.60200  0.15100  1.0000
  H   H3        1.0  0.03760  0.56700  0.34900  1.0000
  H   H4        1.0  0.88300  0.81200  0.42600  1.0000
  H   H5        1.0  0.15600  0.14000  0.42800  1.0000
  H   H6        1.0  0.19500  0.65600  0.51300  1.0000
  H   H7        1.0  0.53800  0.34900  0.56700  1.0000
  H   H8        1.0  0.88100  0.77700  0.58800  1.0000
  H   H9        1.0  0.20300  0.15100  0.60200  1.0000
  H   H10       1.0  0.69500  0.51300  0.65600  1.0000
  H   H11       1.0  0.38100  0.58800  0.77700  1.0000
  H   H12       1.0  0.38300  0.42600  0.81200  1.0000
  K   K1        1.0  0.51700  0.96600  0.48400  1.0000
  K   K2        1.0  0.01700  0.48400  0.96600  1.0000
  N   N1        1.0  0.44000  0.69900  0.15300  1.0000
  N   N2        1.0  0.24500  0.33000  0.18500  1.0000
  N   N3        1.0  0.04860  0.87200  0.30400  1.0000
  N   N4        1.0  0.74500  0.18500  0.33000  1.0000
  N   N5        1.0  0.27900  0.80500  0.67200  1.0000
  N   N6        1.0  0.94000  0.15300  0.69900  1.0000
  N   N7        1.0  0.77900  0.67200  0.80500  1.0000
  N   N8        1.0  0.54900  0.30400  0.87200  1.0000
  Na  Na1       1.0  0.49200  0.54800  0.36400  1.0000
  Na  Na2       1.0  0.99200  0.36400  0.54800  1.0000
  O   O1        1.0  0.77700  0.52500  0.18400  1.0000
  O   O2        1.0  0.17000  0.56800  0.43700  1.0000
  O   O3        1.0  0.77700  0.77900  0.48800  1.0000
  O   O4        1.0  0.27700  0.18400  0.52500  1.0000
  O   O5        1.0  0.67000  0.43700  0.56800  1.0000
  O   O6        1.0  0.27700  0.48800  0.77900  1.0000
  Pt  Pt1       1.0  0.49800  0.99600  0.00149  1.0000
  Pt  Pt2       1.0  0.99800  0.00150  0.99600  1.0000
