data_image0
_chemical_formula_structural       B4C4H20N8S4
_chemical_formula_sum              "B4 C4 H20 N8 S4"
_cell_length_a       9.0399
_cell_length_b       6.53963
_cell_length_c       7.05133
_cell_angle_alpha    90
_cell_angle_beta     90
_cell_angle_gamma    90

_space_group_name_H-M_alt    "P 1"
_space_group_IT_number       1

loop_
  _space_group_symop_operation_xyz
  'x, y, z'

loop_
  _atom_site_type_symbol
  _atom_site_label
  _atom_site_symmetry_multiplicity
  _atom_site_fract_x
  _atom_site_fract_y
  _atom_site_fract_z
  _atom_site_occupancy
  B   B1        1.0  0.26400  0.75000  0.18100  1.0000
  B   B2        1.0  0.76400  0.75000  0.31900  1.0000
  B   B3        1.0  0.23600  0.25000  0.68100  1.0000
  B   B4        1.0  0.73600  0.25000  0.81900  1.0000
  C   C1        1.0  0.94400  0.25000  0.09120  1.0000
  C   C2        1.0  0.44400  0.25000  0.40900  1.0000
  C   C3        1.0  0.55600  0.75000  0.59100  1.0000
  C   C4        1.0  0.05620  0.75000  0.90900  1.0000
  H   H1        1.0  0.74000  0.75000  0.00907  1.0000
  H   H2        1.0  0.60500  0.62300  0.11800  1.0000
  H   H3        1.0  0.60500  0.87700  0.11800  1.0000
  H   H4        1.0  0.33900  0.59600  0.17500  1.0000
  H   H5        1.0  0.33900  0.90400  0.17500  1.0000
  H   H6        1.0  0.83900  0.59600  0.32500  1.0000
  H   H7        1.0  0.83900  0.90400  0.32500  1.0000
  H   H8        1.0  0.10500  0.62300  0.38200  1.0000
  H   H9        1.0  0.10500  0.87700  0.38200  1.0000
  H   H10       1.0  0.24000  0.75000  0.49100  1.0000
  H   H11       1.0  0.76000  0.25000  0.50900  1.0000
  H   H12       1.0  0.89500  0.12300  0.61800  1.0000
  H   H13       1.0  0.89500  0.37700  0.61800  1.0000
  H   H14       1.0  0.16100  0.09630  0.67500  1.0000
  H   H15       1.0  0.16100  0.40400  0.67500  1.0000
  H   H16       1.0  0.66100  0.09630  0.82500  1.0000
  H   H17       1.0  0.66100  0.40400  0.82500  1.0000
  H   H18       1.0  0.39500  0.12300  0.88200  1.0000
  H   H19       1.0  0.39500  0.37700  0.88200  1.0000
  H   H20       1.0  0.26000  0.25000  0.99100  1.0000
  N   N1        1.0  0.15200  0.75000  0.02240  1.0000
  N   N2        1.0  0.67200  0.75000  0.12700  1.0000
  N   N3        1.0  0.17200  0.75000  0.37300  1.0000
  N   N4        1.0  0.65200  0.75000  0.47800  1.0000
  N   N5        1.0  0.34800  0.25000  0.52200  1.0000
  N   N6        1.0  0.82800  0.25000  0.62700  1.0000
  N   N7        1.0  0.32800  0.25000  0.87300  1.0000
  N   N8        1.0  0.84800  0.25000  0.97800  1.0000
  S   S1        1.0  0.07430  0.25000  0.24600  1.0000
  S   S2        1.0  0.57400  0.25000  0.25400  1.0000
  S   S3        1.0  0.42600  0.75000  0.74600  1.0000
  S   S4        1.0  0.92600  0.75000  0.75400  1.0000
