data_image0
_chemical_formula_structural       C4H16N4Na4O8S4
_chemical_formula_sum              "C4 H16 N4 Na4 O8 S4"
_cell_length_a       6.15522
_cell_length_b       8.99274
_cell_length_c       8.99274
_cell_angle_alpha    97.5185
_cell_angle_beta     102.707
_cell_angle_gamma    102.707

_space_group_name_H-M_alt    "P 1"
_space_group_IT_number       1

loop_
  _space_group_symop_operation_xyz
  'x, y, z'

loop_
  _atom_site_type_symbol
  _atom_site_label
  _atom_site_symmetry_multiplicity
  _atom_site_fract_x
  _atom_site_fract_y
  _atom_site_fract_z
  _atom_site_occupancy
  C   C1        1.0  0.20200  0.30100  0.15300  1.0000
  C   C2        1.0  0.70200  0.15300  0.30100  1.0000
  C   C3        1.0  0.29800  0.84700  0.69900  1.0000
  C   C4        1.0  0.79800  0.69900  0.84700  1.0000
  H   H1        1.0  0.67100  0.37600  0.02780  1.0000
  H   H2        1.0  0.30400  0.62600  0.14000  1.0000
  H   H3        1.0  0.90400  0.50300  0.24200  1.0000
  H   H4        1.0  0.65300  0.49200  0.25900  1.0000
  H   H5        1.0  0.19600  0.86000  0.37400  1.0000
  H   H6        1.0  0.17100  0.02780  0.37600  1.0000
  H   H7        1.0  0.15300  0.25900  0.49200  1.0000
  H   H8        1.0  0.59600  0.75800  0.49700  1.0000
  H   H9        1.0  0.40400  0.24200  0.50300  1.0000
  H   H10       1.0  0.84700  0.74100  0.50800  1.0000
  H   H11       1.0  0.82900  0.97200  0.62400  1.0000
  H   H12       1.0  0.80400  0.14000  0.62600  1.0000
  H   H13       1.0  0.34700  0.50800  0.74100  1.0000
  H   H14       1.0  0.09650  0.49700  0.75800  1.0000
  H   H15       1.0  0.69600  0.37400  0.86000  1.0000
  H   H16       1.0  0.32900  0.62400  0.97200  1.0000
  N   N1        1.0  0.16600  0.18900  0.05700  1.0000
  N   N2        1.0  0.66600  0.05700  0.18900  1.0000
  N   N3        1.0  0.33400  0.94300  0.81100  1.0000
  N   N4        1.0  0.83400  0.81100  0.94300  1.0000
  Na  Na1       1.0  0.25000  0.93300  0.06660  1.0000
  Na  Na2       1.0  0.75000  0.80100  0.19900  1.0000
  Na  Na3       1.0  0.25000  0.19900  0.80100  1.0000
  Na  Na4       1.0  0.75000  0.06660  0.93300  1.0000
  O   O1        1.0  0.35400  0.69700  0.07130  1.0000
  O   O2        1.0  0.75700  0.52700  0.19500  1.0000
  O   O3        1.0  0.14600  0.92900  0.30300  1.0000
  O   O4        1.0  0.74300  0.80500  0.47300  1.0000
  O   O5        1.0  0.25700  0.19500  0.52700  1.0000
  O   O6        1.0  0.85400  0.07130  0.69700  1.0000
  O   O7        1.0  0.24300  0.47300  0.80500  1.0000
  O   O8        1.0  0.64600  0.30300  0.92900  1.0000
  S   S1        1.0  0.25700  0.45300  0.29000  1.0000
  S   S2        1.0  0.75700  0.29000  0.45300  1.0000
  S   S3        1.0  0.24300  0.71000  0.54700  1.0000
  S   S4        1.0  0.74300  0.54700  0.71000  1.0000
