data_image0
_chemical_formula_structural       In2Li3
_chemical_formula_sum              "In2 Li3"
_cell_length_a       4.71266
_cell_length_b       4.71266
_cell_length_c       5.54598
_cell_angle_alpha    64.8575
_cell_angle_beta     115.143
_cell_angle_gamma    120

_space_group_name_H-M_alt    "P 1"
_space_group_IT_number       1

loop_
  _space_group_symop_operation_xyz
  'x, y, z'

loop_
  _atom_site_type_symbol
  _atom_site_label
  _atom_site_symmetry_multiplicity
  _atom_site_fract_x
  _atom_site_fract_y
  _atom_site_fract_z
  _atom_site_occupancy
  In  In1       1.0  0.79200  0.20800  0.37500  1.0000
  In  In2       1.0  0.20800  0.79200  0.62500  1.0000
  Li  Li1       1.0  0.00000  0.00000  0.00000  1.0000
  Li  Li2       1.0  0.40400  0.59600  0.21100  1.0000
  Li  Li3       1.0  0.59600  0.40400  0.78900  1.0000
