data_image0
_chemical_formula_structural       C8H24N4O4
_chemical_formula_sum              "C8 H24 N4 O4"
_cell_length_a       8.15976
_cell_length_b       6.83629
_cell_length_c       5.27027
_cell_angle_alpha    90
_cell_angle_beta     90
_cell_angle_gamma    90

_space_group_name_H-M_alt    "P 1"
_space_group_IT_number       1

loop_
  _space_group_symop_operation_xyz
  'x, y, z'

loop_
  _atom_site_type_symbol
  _atom_site_label
  _atom_site_symmetry_multiplicity
  _atom_site_fract_x
  _atom_site_fract_y
  _atom_site_fract_z
  _atom_site_occupancy
  C   C1        1.0  0.25000  0.57200  0.16000  1.0000
  C   C2        1.0  0.25000  0.92800  0.16000  1.0000
  C   C3        1.0  0.60000  0.25000  0.16800  1.0000
  C   C4        1.0  0.90000  0.25000  0.16800  1.0000
  C   C5        1.0  0.10000  0.75000  0.83200  1.0000
  C   C6        1.0  0.40000  0.75000  0.83200  1.0000
  C   C7        1.0  0.75000  0.07210  0.84000  1.0000
  C   C8        1.0  0.75000  0.42800  0.84000  1.0000
  H   H1        1.0  0.25000  0.05790  0.03800  1.0000
  H   H2        1.0  0.25000  0.44200  0.03800  1.0000
  H   H3        1.0  0.00691  0.25000  0.04390  1.0000
  H   H4        1.0  0.49300  0.25000  0.04390  1.0000
  H   H5        1.0  0.14000  0.57700  0.27800  1.0000
  H   H6        1.0  0.36000  0.57700  0.27800  1.0000
  H   H7        1.0  0.14000  0.92300  0.27800  1.0000
  H   H8        1.0  0.36000  0.92300  0.27800  1.0000
  H   H9        1.0  0.60200  0.11800  0.28600  1.0000
  H   H10       1.0  0.89800  0.11800  0.28600  1.0000
  H   H11       1.0  0.60200  0.38200  0.28600  1.0000
  H   H12       1.0  0.89800  0.38200  0.28600  1.0000
  H   H13       1.0  0.10200  0.61800  0.71400  1.0000
  H   H14       1.0  0.39800  0.61800  0.71400  1.0000
  H   H15       1.0  0.10200  0.88200  0.71400  1.0000
  H   H16       1.0  0.39800  0.88200  0.71400  1.0000
  H   H17       1.0  0.64000  0.07730  0.72200  1.0000
  H   H18       1.0  0.86000  0.07730  0.72200  1.0000
  H   H19       1.0  0.64000  0.42300  0.72200  1.0000
  H   H20       1.0  0.86000  0.42300  0.72200  1.0000
  H   H21       1.0  0.50700  0.75000  0.95600  1.0000
  H   H22       1.0  0.99300  0.75000  0.95600  1.0000
  H   H23       1.0  0.75000  0.55800  0.96200  1.0000
  H   H24       1.0  0.75000  0.94200  0.96200  1.0000
  N   N1        1.0  0.75000  0.25000  0.00512  1.0000
  N   N2        1.0  0.75000  0.75000  0.46400  1.0000
  N   N3        1.0  0.25000  0.25000  0.53600  1.0000
  N   N4        1.0  0.25000  0.75000  0.99500  1.0000
  O   O1        1.0  0.61800  0.75000  0.33400  1.0000
  O   O2        1.0  0.88200  0.75000  0.33400  1.0000
  O   O3        1.0  0.11800  0.25000  0.66600  1.0000
  O   O4        1.0  0.38200  0.25000  0.66600  1.0000
