data_image0
_chemical_formula_structural       C16H4O16Rb4
_chemical_formula_sum              "C16 H4 O16 Rb4"
_cell_length_a       4.06858
_cell_length_b       15.6887
_cell_length_c       7.93718
_cell_angle_alpha    90
_cell_angle_beta     95.1385
_cell_angle_gamma    90

_space_group_name_H-M_alt    "P 1"
_space_group_IT_number       1

loop_
  _space_group_symop_operation_xyz
  'x, y, z'

loop_
  _atom_site_type_symbol
  _atom_site_label
  _atom_site_symmetry_multiplicity
  _atom_site_fract_x
  _atom_site_fract_y
  _atom_site_fract_z
  _atom_site_occupancy
  C   C1        1.0  0.88300  0.87000  0.13300  1.0000
  C   C2        1.0  0.89400  0.77600  0.16500  1.0000
  C   C3        1.0  0.85700  0.28900  0.19900  1.0000
  C   C4        1.0  0.87200  0.38100  0.21500  1.0000
  C   C5        1.0  0.12800  0.88100  0.28500  1.0000
  C   C6        1.0  0.14300  0.78900  0.30100  1.0000
  C   C7        1.0  0.10600  0.27600  0.33500  1.0000
  C   C8        1.0  0.11700  0.37000  0.36700  1.0000
  C   C9        1.0  0.88300  0.63000  0.63300  1.0000
  C   C10       1.0  0.89400  0.72400  0.66500  1.0000
  C   C11       1.0  0.85700  0.21100  0.69900  1.0000
  C   C12       1.0  0.87200  0.11900  0.71500  1.0000
  C   C13       1.0  0.12800  0.61900  0.78500  1.0000
  C   C14       1.0  0.14300  0.71100  0.80100  1.0000
  C   C15       1.0  0.10600  0.22400  0.83500  1.0000
  C   C16       1.0  0.11700  0.13000  0.86700  1.0000
  H   H1        1.0  0.48700  0.26400  0.01360  1.0000
  H   H2        1.0  0.51300  0.76400  0.48600  1.0000
  H   H3        1.0  0.48700  0.23600  0.51400  1.0000
  H   H4        1.0  0.51300  0.73600  0.98600  1.0000
  O   O1        1.0  0.74400  0.91800  0.02640  1.0000
  O   O2        1.0  0.74600  0.71100  0.09900  1.0000
  O   O3        1.0  0.68500  0.23500  0.10400  1.0000
  O   O4        1.0  0.74100  0.44300  0.13700  1.0000
  O   O5        1.0  0.25900  0.94300  0.36300  1.0000
  O   O6        1.0  0.31500  0.73500  0.39600  1.0000
  O   O7        1.0  0.25400  0.21100  0.40100  1.0000
  O   O8        1.0  0.25600  0.41800  0.47400  1.0000
  O   O9        1.0  0.74400  0.58200  0.52600  1.0000
  O   O10       1.0  0.74600  0.78900  0.59900  1.0000
  O   O11       1.0  0.68500  0.26500  0.60400  1.0000
  O   O12       1.0  0.74100  0.05690  0.63700  1.0000
  O   O13       1.0  0.25900  0.55700  0.86300  1.0000
  O   O14       1.0  0.31500  0.76500  0.89600  1.0000
  O   O15       1.0  0.25400  0.28900  0.90100  1.0000
  O   O16       1.0  0.25600  0.08150  0.97400  1.0000
  Rb  Rb1       1.0  0.27900  0.56700  0.23700  1.0000
  Rb  Rb2       1.0  0.72100  0.06740  0.26300  1.0000
  Rb  Rb3       1.0  0.27900  0.93300  0.73700  1.0000
  Rb  Rb4       1.0  0.72100  0.43300  0.76300  1.0000
