data_image0
_chemical_formula_structural       C4H16N8O8S4
_chemical_formula_sum              "C4 H16 N8 O8 S4"
_cell_length_a       10.0149
_cell_length_b       10.6304
_cell_length_c       3.59061
_cell_angle_alpha    90
_cell_angle_beta     90
_cell_angle_gamma    90

_space_group_name_H-M_alt    "P 1"
_space_group_IT_number       1

loop_
  _space_group_symop_operation_xyz
  'x, y, z'

loop_
  _atom_site_type_symbol
  _atom_site_label
  _atom_site_symmetry_multiplicity
  _atom_site_fract_x
  _atom_site_fract_y
  _atom_site_fract_z
  _atom_site_occupancy
  C   C1        1.0  0.25000  0.11500  0.09360  1.0000
  C   C2        1.0  0.25000  0.61500  0.40600  1.0000
  C   C3        1.0  0.75000  0.38500  0.59400  1.0000
  C   C4        1.0  0.75000  0.88500  0.90600  1.0000
  H   H1        1.0  0.04610  0.11800  0.10800  1.0000
  H   H2        1.0  0.45400  0.11800  0.10800  1.0000
  H   H3        1.0  0.12800  0.75800  0.23600  1.0000
  H   H4        1.0  0.37200  0.75800  0.23600  1.0000
  H   H5        1.0  0.12800  0.25800  0.26400  1.0000
  H   H6        1.0  0.37200  0.25800  0.26400  1.0000
  H   H7        1.0  0.04610  0.61800  0.39200  1.0000
  H   H8        1.0  0.45400  0.61800  0.39200  1.0000
  H   H9        1.0  0.54600  0.38200  0.60800  1.0000
  H   H10       1.0  0.95400  0.38200  0.60800  1.0000
  H   H11       1.0  0.62800  0.74200  0.73600  1.0000
  H   H12       1.0  0.87200  0.74200  0.73600  1.0000
  H   H13       1.0  0.62800  0.24200  0.76400  1.0000
  H   H14       1.0  0.87200  0.24200  0.76400  1.0000
  H   H15       1.0  0.54600  0.88200  0.89200  1.0000
  H   H16       1.0  0.95400  0.88200  0.89200  1.0000
  N   N1        1.0  0.13400  0.16800  0.15300  1.0000
  N   N2        1.0  0.36600  0.16800  0.15300  1.0000
  N   N3        1.0  0.13400  0.66800  0.34700  1.0000
  N   N4        1.0  0.36600  0.66800  0.34700  1.0000
  N   N5        1.0  0.63400  0.33200  0.65300  1.0000
  N   N6        1.0  0.86600  0.33200  0.65300  1.0000
  N   N7        1.0  0.63400  0.83200  0.84700  1.0000
  N   N8        1.0  0.86600  0.83200  0.84700  1.0000
  O   O1        1.0  0.12500  0.90200  0.01170  1.0000
  O   O2        1.0  0.37500  0.90200  0.01170  1.0000
  O   O3        1.0  0.12500  0.40200  0.48800  1.0000
  O   O4        1.0  0.37500  0.40200  0.48800  1.0000
  O   O5        1.0  0.62500  0.59800  0.51200  1.0000
  O   O6        1.0  0.87500  0.59800  0.51200  1.0000
  O   O7        1.0  0.62500  0.09840  0.98800  1.0000
  O   O8        1.0  0.87500  0.09840  0.98800  1.0000
  S   S1        1.0  0.75000  0.03970  0.15100  1.0000
  S   S2        1.0  0.75000  0.54000  0.34900  1.0000
  S   S3        1.0  0.25000  0.46000  0.65100  1.0000
  S   S4        1.0  0.25000  0.96000  0.84900  1.0000
