data_image0
_chemical_formula_structural       As2Cu5Ti
_chemical_formula_sum              "As2 Cu5 Ti1"
_cell_length_a       3.99841
_cell_length_b       3.99841
_cell_length_c       6.80804
_cell_angle_alpha    90
_cell_angle_beta     90
_cell_angle_gamma    90

_space_group_name_H-M_alt    "P 1"
_space_group_IT_number       1

loop_
  _space_group_symop_operation_xyz
  'x, y, z'

loop_
  _atom_site_type_symbol
  _atom_site_label
  _atom_site_symmetry_multiplicity
  _atom_site_fract_x
  _atom_site_fract_y
  _atom_site_fract_z
  _atom_site_occupancy
  As  As1       1.0  0.00000  0.00000  0.00000  1.0000
  As  As2       1.0  0.50000  0.50000  0.50000  1.0000
  Cu  Cu1       1.0  0.50000  0.50000  0.00000  1.0000
  Cu  Cu2       1.0  0.50000  0.00000  0.22900  1.0000
  Cu  Cu3       1.0  0.00000  0.50000  0.22900  1.0000
  Cu  Cu4       1.0  0.50000  0.00000  0.77100  1.0000
  Cu  Cu5       1.0  0.00000  0.50000  0.77100  1.0000
  Ti  Ti1       1.0  0.00000  0.00000  0.50000  1.0000
