data_image0
_chemical_formula_structural       C8H24Se8
_chemical_formula_sum              "C8 H24 Se8"
_cell_length_a       5.23413
_cell_length_b       9.31578
_cell_length_c       11.4483
_cell_angle_alpha    93.682
_cell_angle_beta     76.7854
_cell_angle_gamma    106.316

_space_group_name_H-M_alt    "P 1"
_space_group_IT_number       1

loop_
  _space_group_symop_operation_xyz
  'x, y, z'

loop_
  _atom_site_type_symbol
  _atom_site_label
  _atom_site_symmetry_multiplicity
  _atom_site_fract_x
  _atom_site_fract_y
  _atom_site_fract_z
  _atom_site_occupancy
  C   C1        1.0  0.42700  0.35500  0.02870  1.0000
  C   C2        1.0  0.85300  0.91400  0.19300  1.0000
  C   C3        1.0  0.79500  0.41400  0.30700  1.0000
  C   C4        1.0  0.20600  0.85500  0.47100  1.0000
  C   C5        1.0  0.82100  0.14500  0.52900  1.0000
  C   C6        1.0  0.68800  0.58600  0.69300  1.0000
  C   C7        1.0  0.13100  0.08590  0.80700  1.0000
  C   C8        1.0  0.10000  0.64500  0.97100  1.0000
  H   H1        1.0  0.53400  0.46700  0.05630  1.0000
  H   H2        1.0  0.20600  0.33000  0.06560  1.0000
  H   H3        1.0  0.05050  0.65300  0.06960  1.0000
  H   H4        1.0  0.91800  0.93900  0.09630  1.0000
  H   H5        1.0  0.01390  0.88300  0.22300  1.0000
  H   H6        1.0  0.80100  0.01040  0.24200  1.0000
  H   H7        1.0  0.79300  0.51000  0.25800  1.0000
  H   H8        1.0  0.98700  0.38300  0.27700  1.0000
  H   H9        1.0  0.76400  0.43900  0.40400  1.0000
  H   H10       1.0  0.87000  0.15300  0.43000  1.0000
  H   H11       1.0  0.02200  0.83000  0.43400  1.0000
  H   H12       1.0  0.34000  0.96700  0.44400  1.0000
  H   H13       1.0  0.81700  0.03330  0.55600  1.0000
  H   H14       1.0  0.62700  0.17000  0.56600  1.0000
  H   H15       1.0  0.14800  0.84700  0.57000  1.0000
  H   H16       1.0  0.72800  0.56100  0.59600  1.0000
  H   H17       1.0  0.88100  0.61700  0.72300  1.0000
  H   H18       1.0  0.54000  0.49000  0.74200  1.0000
  H   H19       1.0  0.03280  0.99000  0.75800  1.0000
  H   H20       1.0  0.35400  0.11700  0.77700  1.0000
  H   H21       1.0  0.07470  0.06060  0.90400  1.0000
  H   H22       1.0  0.46700  0.34700  0.93000  1.0000
  H   H23       1.0  0.94200  0.67000  0.93400  1.0000
  H   H24       1.0  0.12400  0.53300  0.94400  1.0000
  Se  Se1       1.0  0.57100  0.20300  0.08150  1.0000
  Se  Se2       1.0  0.52300  0.74300  0.21000  1.0000
  Se  Se3       1.0  0.48300  0.24300  0.29000  1.0000
  Se  Se4       1.0  0.40200  0.70300  0.41800  1.0000
  Se  Se5       1.0  0.11800  0.29700  0.58200  1.0000
  Se  Se6       1.0  0.53000  0.75700  0.71000  1.0000
  Se  Se7       1.0  0.98900  0.25700  0.79000  1.0000
  Se  Se8       1.0  0.45000  0.79700  0.91800  1.0000
