data_image0
_chemical_formula_structural       Al8Mn4Pr
_chemical_formula_sum              "Al8 Mn4 Pr1"
_cell_length_a       5.18159
_cell_length_b       6.79541
_cell_length_c       6.79541
_cell_angle_alpha    98.3579
_cell_angle_beta     67.5884
_cell_angle_gamma    112.412

_space_group_name_H-M_alt    "P 1"
_space_group_IT_number       1

loop_
  _space_group_symop_operation_xyz
  'x, y, z'

loop_
  _atom_site_type_symbol
  _atom_site_label
  _atom_site_symmetry_multiplicity
  _atom_site_fract_x
  _atom_site_fract_y
  _atom_site_fract_z
  _atom_site_occupancy
  Al  Al1       1.0  0.27200  0.77200  0.22800  1.0000
  Al  Al2       1.0  0.50000  0.22800  0.22800  1.0000
  Al  Al3       1.0  0.65900  0.65900  0.34100  1.0000
  Al  Al4       1.0  0.00000  0.34100  0.34100  1.0000
  Al  Al5       1.0  0.34100  0.34100  0.65900  1.0000
  Al  Al6       1.0  0.00000  0.65900  0.65900  1.0000
  Al  Al7       1.0  0.72800  0.22800  0.77200  1.0000
  Al  Al8       1.0  0.50000  0.77200  0.77200  1.0000
  Mn  Mn1       1.0  0.00000  0.50000  0.00000  1.0000
  Mn  Mn2       1.0  0.50000  0.50000  0.00000  1.0000
  Mn  Mn3       1.0  0.00000  0.00000  0.50000  1.0000
  Mn  Mn4       1.0  0.50000  0.00000  0.50000  1.0000
  Pr  Pr1       1.0  0.00000  0.00000  0.00000  1.0000
