data_image0
_chemical_formula_structural       Fe6Ge6Nb
_chemical_formula_sum              "Fe6 Ge6 Nb1"
_cell_length_a       5.02311
_cell_length_b       5.02311
_cell_length_c       8.09268
_cell_angle_alpha    90
_cell_angle_beta     90
_cell_angle_gamma    120.008

_space_group_name_H-M_alt    "P 1"
_space_group_IT_number       1

loop_
  _space_group_symop_operation_xyz
  'x, y, z'

loop_
  _atom_site_type_symbol
  _atom_site_label
  _atom_site_symmetry_multiplicity
  _atom_site_fract_x
  _atom_site_fract_y
  _atom_site_fract_z
  _atom_site_occupancy
  Fe  Fe1       1.0  0.50000  0.00001  0.24900  1.0000
  Fe  Fe2       1.0  0.00001  0.50000  0.24900  1.0000
  Fe  Fe3       1.0  0.50000  0.50000  0.24900  1.0000
  Fe  Fe4       1.0  0.50000  0.50000  0.75100  1.0000
  Fe  Fe5       1.0  0.50000  0.00001  0.75100  1.0000
  Fe  Fe6       1.0  0.00001  0.50000  0.75100  1.0000
  Ge  Ge1       1.0  0.66700  0.33300  0.00000  1.0000
  Ge  Ge2       1.0  0.33300  0.66700  0.00000  1.0000
  Ge  Ge3       1.0  0.00001  0.00001  0.33900  1.0000
  Ge  Ge4       1.0  0.66700  0.33300  0.50000  1.0000
  Ge  Ge5       1.0  0.33300  0.66700  0.50000  1.0000
  Ge  Ge6       1.0  0.00001  0.00001  0.66100  1.0000
  Nb  Nb1       1.0  0.00001  0.00001  0.00000  1.0000
