data_image0
_chemical_formula_structural       Br2Cs2MnO6V2
_chemical_formula_sum              "Br2 Cs2 Mn1 O6 V2"
_cell_length_a       9.45218
_cell_length_b       5.66552
_cell_length_c       5.54206
_cell_angle_alpha    90
_cell_angle_beta     90
_cell_angle_gamma    107.439

_space_group_name_H-M_alt    "P 1"
_space_group_IT_number       1

loop_
  _space_group_symop_operation_xyz
  'x, y, z'

loop_
  _atom_site_type_symbol
  _atom_site_label
  _atom_site_symmetry_multiplicity
  _atom_site_fract_x
  _atom_site_fract_y
  _atom_site_fract_z
  _atom_site_occupancy
  Br  Br1       1.0  0.00000  0.00000  0.01270  1.0000
  Br  Br2       1.0  0.00000  0.50000  0.46500  1.0000
  Cs  Cs1       1.0  0.73200  0.36600  0.94400  1.0000
  Cs  Cs2       1.0  0.26800  0.63400  0.94400  1.0000
  Mn  Mn1       1.0  0.00000  0.00000  0.48900  1.0000
  O   O1        1.0  0.40200  0.20100  0.15400  1.0000
  O   O2        1.0  0.59800  0.79900  0.15400  1.0000
  O   O3        1.0  0.22200  0.11100  0.55500  1.0000
  O   O4        1.0  0.77800  0.88900  0.55500  1.0000
  O   O5        1.0  0.50000  0.00000  0.57000  1.0000
  O   O6        1.0  0.50000  0.50000  0.57000  1.0000
  V   V1        1.0  0.39800  0.19900  0.45100  1.0000
  V   V2        1.0  0.60200  0.80100  0.45100  1.0000
