data_image0
_chemical_formula_structural       Mn12Nd
_chemical_formula_sum              "Mn12 Nd1"
_cell_length_a       4.66821
_cell_length_b       6.32167
_cell_length_c       6.32168
_cell_angle_alpha    97.8349
_cell_angle_beta     68.3315
_cell_angle_gamma    111.668

_space_group_name_H-M_alt    "P 1"
_space_group_IT_number       1

loop_
  _space_group_symop_operation_xyz
  'x, y, z'

loop_
  _atom_site_type_symbol
  _atom_site_label
  _atom_site_symmetry_multiplicity
  _atom_site_fract_x
  _atom_site_fract_y
  _atom_site_fract_z
  _atom_site_occupancy
  Mn  Mn1       1.0  0.50000  0.50000  0.00000  1.0000
  Mn  Mn2       1.0  0.00000  0.50000  0.00000  1.0000
  Mn  Mn3       1.0  0.26700  0.76700  0.23300  1.0000
  Mn  Mn4       1.0  0.50000  0.23300  0.23300  1.0000
  Mn  Mn5       1.0  1.00000  0.36800  0.36800  1.0000
  Mn  Mn6       1.0  0.63200  0.63200  0.36800  1.0000
  Mn  Mn7       1.0  0.00000  0.00000  0.50000  1.0000
  Mn  Mn8       1.0  0.50000  0.00000  0.50000  1.0000
  Mn  Mn9       1.0  0.36800  0.36800  0.63200  1.0000
  Mn  Mn10      1.0  0.00000  0.63200  0.63200  1.0000
  Mn  Mn11      1.0  0.50000  0.76700  0.76700  1.0000
  Mn  Mn12      1.0  0.73300  0.23300  0.76700  1.0000
  Nd  Nd1       1.0  0.00000  0.00000  0.00000  1.0000
