data_image0
_chemical_formula_structural       C6H12Mn2N6Na2O6S6
_chemical_formula_sum              "C6 H12 Mn2 N6 Na2 O6 S6"
_cell_length_a       9.95682
_cell_length_b       9.95678
_cell_length_c       6.20076
_cell_angle_alpha    89.9998
_cell_angle_beta     90.0009
_cell_angle_gamma    120.001

_space_group_name_H-M_alt    "P 1"
_space_group_IT_number       1

loop_
  _space_group_symop_operation_xyz
  'x, y, z'

loop_
  _atom_site_type_symbol
  _atom_site_label
  _atom_site_symmetry_multiplicity
  _atom_site_fract_x
  _atom_site_fract_y
  _atom_site_fract_z
  _atom_site_occupancy
  C   C1        1.0  0.58700  0.97900  0.22100  1.0000
  C   C2        1.0  0.02060  0.60800  0.22100  1.0000
  C   C3        1.0  0.39200  0.41300  0.22100  1.0000
  C   C4        1.0  0.60800  0.58700  0.77900  1.0000
  C   C5        1.0  0.41300  0.02060  0.77900  1.0000
  C   C6        1.0  0.97900  0.39200  0.77900  1.0000
  H   H1        1.0  0.70300  0.80900  0.23700  1.0000
  H   H2        1.0  0.19100  0.89400  0.23700  1.0000
  H   H3        1.0  0.10600  0.29700  0.23700  1.0000
  H   H4        1.0  0.27100  0.07470  0.25600  1.0000
  H   H5        1.0  0.80400  0.72900  0.25600  1.0000
  H   H6        1.0  0.92500  0.19600  0.25600  1.0000
  H   H7        1.0  0.19600  0.27100  0.74400  1.0000
  H   H8        1.0  0.07470  0.80400  0.74400  1.0000
  H   H9        1.0  0.72900  0.92500  0.74400  1.0000
  H   H10       1.0  0.29700  0.19100  0.76300  1.0000
  H   H11       1.0  0.89400  0.70300  0.76300  1.0000
  H   H12       1.0  0.80900  0.10600  0.76300  1.0000
  Mn  Mn1       1.0  0.66700  0.33300  0.03340  1.0000
  Mn  Mn2       1.0  0.33300  0.66700  0.96700  1.0000
  N   N1        1.0  0.51700  0.85600  0.13700  1.0000
  N   N2        1.0  0.14400  0.66000  0.13700  1.0000
  N   N3        1.0  0.34000  0.48300  0.13700  1.0000
  N   N4        1.0  0.66000  0.51700  0.86300  1.0000
  N   N5        1.0  0.85600  0.34000  0.86300  1.0000
  N   N6        1.0  0.48300  0.14400  0.86300  1.0000
  Na  Na1       1.0  0.00000  0.00000  0.00000  1.0000
  Na  Na2       1.0  0.00000  0.00000  0.50000  1.0000
  O   O1        1.0  0.16900  0.97900  0.24400  1.0000
  O   O2        1.0  0.02090  0.19000  0.24400  1.0000
  O   O3        1.0  0.81000  0.83100  0.24400  1.0000
  O   O4        1.0  0.19000  0.16900  0.75600  1.0000
  O   O5        1.0  0.97900  0.81000  0.75600  1.0000
  O   O6        1.0  0.83100  0.02090  0.75600  1.0000
  S   S1        1.0  0.85300  0.53800  0.33900  1.0000
  S   S2        1.0  0.46200  0.31600  0.33900  1.0000
  S   S3        1.0  0.68400  0.14700  0.33900  1.0000
  S   S4        1.0  0.53800  0.68400  0.66100  1.0000
  S   S5        1.0  0.31600  0.85300  0.66100  1.0000
  S   S6        1.0  0.14700  0.46200  0.66100  1.0000
