data_image0
_chemical_formula_structural       Ca6Rh8Sn26
_chemical_formula_sum              "Ca6 Rh8 Sn26"
_cell_length_a       9.81457
_cell_length_b       9.81457
_cell_length_c       9.81457
_cell_angle_alpha    90
_cell_angle_beta     90
_cell_angle_gamma    90

_space_group_name_H-M_alt    "P 1"
_space_group_IT_number       1

loop_
  _space_group_symop_operation_xyz
  'x, y, z'

loop_
  _atom_site_type_symbol
  _atom_site_label
  _atom_site_symmetry_multiplicity
  _atom_site_fract_x
  _atom_site_fract_y
  _atom_site_fract_z
  _atom_site_occupancy
  Ca  Ca1       1.0  0.25000  0.50000  0.00000  1.0000
  Ca  Ca2       1.0  0.75000  0.50000  0.00000  1.0000
  Ca  Ca3       1.0  0.50000  0.00000  0.25000  1.0000
  Ca  Ca4       1.0  0.00000  0.25000  0.50000  1.0000
  Ca  Ca5       1.0  0.00000  0.75000  0.50000  1.0000
  Ca  Ca6       1.0  0.50000  0.00000  0.75000  1.0000
  Rh  Rh1       1.0  0.25000  0.25000  0.25000  1.0000
  Rh  Rh2       1.0  0.75000  0.25000  0.25000  1.0000
  Rh  Rh3       1.0  0.25000  0.75000  0.25000  1.0000
  Rh  Rh4       1.0  0.75000  0.75000  0.25000  1.0000
  Rh  Rh5       1.0  0.25000  0.25000  0.75000  1.0000
  Rh  Rh6       1.0  0.75000  0.25000  0.75000  1.0000
  Rh  Rh7       1.0  0.25000  0.75000  0.75000  1.0000
  Rh  Rh8       1.0  0.75000  0.75000  0.75000  1.0000
  Sn  Sn1       1.0  0.00000  0.00000  0.00000  1.0000
  Sn  Sn2       1.0  0.30400  0.15300  0.00000  1.0000
  Sn  Sn3       1.0  0.69600  0.15300  0.00000  1.0000
  Sn  Sn4       1.0  0.30400  0.84700  0.00000  1.0000
  Sn  Sn5       1.0  0.69600  0.84700  0.00000  1.0000
  Sn  Sn6       1.0  0.00000  0.30400  0.15300  1.0000
  Sn  Sn7       1.0  0.00000  0.69600  0.15300  1.0000
  Sn  Sn8       1.0  0.50000  0.34700  0.19600  1.0000
  Sn  Sn9       1.0  0.50000  0.65300  0.19600  1.0000
  Sn  Sn10      1.0  0.15300  0.00000  0.30400  1.0000
  Sn  Sn11      1.0  0.84700  0.00000  0.30400  1.0000
  Sn  Sn12      1.0  0.19600  0.50000  0.34700  1.0000
  Sn  Sn13      1.0  0.80400  0.50000  0.34700  1.0000
  Sn  Sn14      1.0  0.34700  0.19600  0.50000  1.0000
  Sn  Sn15      1.0  0.65300  0.19600  0.50000  1.0000
  Sn  Sn16      1.0  0.50000  0.50000  0.50000  1.0000
  Sn  Sn17      1.0  0.34700  0.80400  0.50000  1.0000
  Sn  Sn18      1.0  0.65300  0.80400  0.50000  1.0000
  Sn  Sn19      1.0  0.19600  0.50000  0.65300  1.0000
  Sn  Sn20      1.0  0.80400  0.50000  0.65300  1.0000
  Sn  Sn21      1.0  0.15300  0.00000  0.69600  1.0000
  Sn  Sn22      1.0  0.84700  0.00000  0.69600  1.0000
  Sn  Sn23      1.0  0.50000  0.34700  0.80400  1.0000
  Sn  Sn24      1.0  0.50000  0.65300  0.80400  1.0000
  Sn  Sn25      1.0  0.00000  0.30400  0.84700  1.0000
  Sn  Sn26      1.0  0.00000  0.69600  0.84700  1.0000
