data_image0
_chemical_formula_structural       Ce6Ir8Sn26
_chemical_formula_sum              "Ce6 Ir8 Sn26"
_cell_length_a       9.83348
_cell_length_b       9.83348
_cell_length_c       9.83348
_cell_angle_alpha    90
_cell_angle_beta     90
_cell_angle_gamma    90

_space_group_name_H-M_alt    "P 1"
_space_group_IT_number       1

loop_
  _space_group_symop_operation_xyz
  'x, y, z'

loop_
  _atom_site_type_symbol
  _atom_site_label
  _atom_site_symmetry_multiplicity
  _atom_site_fract_x
  _atom_site_fract_y
  _atom_site_fract_z
  _atom_site_occupancy
  Ce  Ce1       1.0  0.50000  0.25000  0.00000  1.0000
  Ce  Ce2       1.0  0.50000  0.75000  0.00000  1.0000
  Ce  Ce3       1.0  0.00000  0.50000  0.25000  1.0000
  Ce  Ce4       1.0  0.25000  0.00000  0.50000  1.0000
  Ce  Ce5       1.0  0.75000  0.00000  0.50000  1.0000
  Ce  Ce6       1.0  0.00000  0.50000  0.75000  1.0000
  Ir  Ir1       1.0  0.25000  0.25000  0.25000  1.0000
  Ir  Ir2       1.0  0.75000  0.25000  0.25000  1.0000
  Ir  Ir3       1.0  0.25000  0.75000  0.25000  1.0000
  Ir  Ir4       1.0  0.75000  0.75000  0.25000  1.0000
  Ir  Ir5       1.0  0.25000  0.25000  0.75000  1.0000
  Ir  Ir6       1.0  0.75000  0.25000  0.75000  1.0000
  Ir  Ir7       1.0  0.25000  0.75000  0.75000  1.0000
  Ir  Ir8       1.0  0.75000  0.75000  0.75000  1.0000
  Sn  Sn1       1.0  0.00000  0.00000  0.00000  1.0000
  Sn  Sn2       1.0  0.15200  0.30600  0.00000  1.0000
  Sn  Sn3       1.0  0.84800  0.30600  0.00000  1.0000
  Sn  Sn4       1.0  0.15200  0.69400  0.00000  1.0000
  Sn  Sn5       1.0  0.84800  0.69400  0.00000  1.0000
  Sn  Sn6       1.0  0.30600  0.00000  0.15200  1.0000
  Sn  Sn7       1.0  0.69400  0.00000  0.15200  1.0000
  Sn  Sn8       1.0  0.34800  0.50000  0.19400  1.0000
  Sn  Sn9       1.0  0.65200  0.50000  0.19400  1.0000
  Sn  Sn10      1.0  0.00000  0.15200  0.30600  1.0000
  Sn  Sn11      1.0  0.00000  0.84800  0.30600  1.0000
  Sn  Sn12      1.0  0.50000  0.19400  0.34800  1.0000
  Sn  Sn13      1.0  0.50000  0.80600  0.34800  1.0000
  Sn  Sn14      1.0  0.19400  0.34800  0.50000  1.0000
  Sn  Sn15      1.0  0.80600  0.34800  0.50000  1.0000
  Sn  Sn16      1.0  0.50000  0.50000  0.50000  1.0000
  Sn  Sn17      1.0  0.19400  0.65200  0.50000  1.0000
  Sn  Sn18      1.0  0.80600  0.65200  0.50000  1.0000
  Sn  Sn19      1.0  0.50000  0.19400  0.65200  1.0000
  Sn  Sn20      1.0  0.50000  0.80600  0.65200  1.0000
  Sn  Sn21      1.0  0.00000  0.15200  0.69400  1.0000
  Sn  Sn22      1.0  0.00000  0.84800  0.69400  1.0000
  Sn  Sn23      1.0  0.34800  0.50000  0.80600  1.0000
  Sn  Sn24      1.0  0.65200  0.50000  0.80600  1.0000
  Sn  Sn25      1.0  0.30600  0.00000  0.84800  1.0000
  Sn  Sn26      1.0  0.69400  0.00000  0.84800  1.0000
