data_image0
_chemical_formula_structural       Co8Pr6Sn26
_chemical_formula_sum              "Co8 Pr6 Sn26"
_cell_length_a       9.65772
_cell_length_b       9.65772
_cell_length_c       9.65772
_cell_angle_alpha    90
_cell_angle_beta     90
_cell_angle_gamma    90

_space_group_name_H-M_alt    "P 1"
_space_group_IT_number       1

loop_
  _space_group_symop_operation_xyz
  'x, y, z'

loop_
  _atom_site_type_symbol
  _atom_site_label
  _atom_site_symmetry_multiplicity
  _atom_site_fract_x
  _atom_site_fract_y
  _atom_site_fract_z
  _atom_site_occupancy
  Co  Co1       1.0  0.25000  0.25000  0.25000  1.0000
  Co  Co2       1.0  0.75000  0.25000  0.25000  1.0000
  Co  Co3       1.0  0.25000  0.75000  0.25000  1.0000
  Co  Co4       1.0  0.75000  0.75000  0.25000  1.0000
  Co  Co5       1.0  0.25000  0.25000  0.75000  1.0000
  Co  Co6       1.0  0.75000  0.25000  0.75000  1.0000
  Co  Co7       1.0  0.25000  0.75000  0.75000  1.0000
  Co  Co8       1.0  0.75000  0.75000  0.75000  1.0000
  Pr  Pr1       1.0  0.50000  0.25000  0.00000  1.0000
  Pr  Pr2       1.0  0.50000  0.75000  0.00000  1.0000
  Pr  Pr3       1.0  0.00000  0.50000  0.25000  1.0000
  Pr  Pr4       1.0  0.25000  0.00000  0.50000  1.0000
  Pr  Pr5       1.0  0.75000  0.00000  0.50000  1.0000
  Pr  Pr6       1.0  0.00000  0.50000  0.75000  1.0000
  Sn  Sn1       1.0  0.00000  0.00000  0.00000  1.0000
  Sn  Sn2       1.0  0.15800  0.30200  0.00000  1.0000
  Sn  Sn3       1.0  0.84200  0.30200  0.00000  1.0000
  Sn  Sn4       1.0  0.15800  0.69800  0.00000  1.0000
  Sn  Sn5       1.0  0.84200  0.69800  0.00000  1.0000
  Sn  Sn6       1.0  0.30200  0.00000  0.15800  1.0000
  Sn  Sn7       1.0  0.69800  0.00000  0.15800  1.0000
  Sn  Sn8       1.0  0.34200  0.50000  0.19800  1.0000
  Sn  Sn9       1.0  0.65800  0.50000  0.19800  1.0000
  Sn  Sn10      1.0  0.00000  0.15800  0.30200  1.0000
  Sn  Sn11      1.0  0.00000  0.84200  0.30200  1.0000
  Sn  Sn12      1.0  0.50000  0.19800  0.34200  1.0000
  Sn  Sn13      1.0  0.50000  0.80200  0.34200  1.0000
  Sn  Sn14      1.0  0.19800  0.34200  0.50000  1.0000
  Sn  Sn15      1.0  0.80200  0.34200  0.50000  1.0000
  Sn  Sn16      1.0  0.50000  0.50000  0.50000  1.0000
  Sn  Sn17      1.0  0.19800  0.65800  0.50000  1.0000
  Sn  Sn18      1.0  0.80200  0.65800  0.50000  1.0000
  Sn  Sn19      1.0  0.50000  0.19800  0.65800  1.0000
  Sn  Sn20      1.0  0.50000  0.80200  0.65800  1.0000
  Sn  Sn21      1.0  0.00000  0.15800  0.69800  1.0000
  Sn  Sn22      1.0  0.00000  0.84200  0.69800  1.0000
  Sn  Sn23      1.0  0.34200  0.50000  0.80200  1.0000
  Sn  Sn24      1.0  0.65800  0.50000  0.80200  1.0000
  Sn  Sn25      1.0  0.30200  0.00000  0.84200  1.0000
  Sn  Sn26      1.0  0.69800  0.00000  0.84200  1.0000
