data_image0
_chemical_formula_structural       Ge2H4O6
_chemical_formula_sum              "Ge2 H4 O6"
_cell_length_a       5.08904
_cell_length_b       5.08904
_cell_length_c       4.56995
_cell_angle_alpha    102.19
_cell_angle_beta     102.19
_cell_angle_gamma    122.749

_space_group_name_H-M_alt    "P 1"
_space_group_IT_number       1

loop_
  _space_group_symop_operation_xyz
  'x, y, z'

loop_
  _atom_site_type_symbol
  _atom_site_label
  _atom_site_symmetry_multiplicity
  _atom_site_fract_x
  _atom_site_fract_y
  _atom_site_fract_z
  _atom_site_occupancy
  Ge  Ge1       1.0  0.84300  0.15700  0.00000  1.0000
  Ge  Ge2       1.0  0.15700  0.84300  0.00000  1.0000
  H   H1        1.0  0.50000  0.50000  0.00000  1.0000
  H   H2        1.0  0.00000  0.00000  0.50000  1.0000
  H   H3        1.0  0.80300  0.19700  0.50000  1.0000
  H   H4        1.0  0.19700  0.80300  0.50000  1.0000
  O   O1        1.0  0.95000  0.58200  0.23900  1.0000
  O   O2        1.0  0.58200  0.95000  0.23900  1.0000
  O   O3        1.0  0.15800  0.15800  0.30700  1.0000
  O   O4        1.0  0.84200  0.84200  0.69300  1.0000
  O   O5        1.0  0.41800  0.04980  0.76100  1.0000
  O   O6        1.0  0.04980  0.41800  0.76100  1.0000
