data_image0
_chemical_formula_structural       CeRhSi3
_chemical_formula_sum              "Ce1 Rh1 Si3"
_cell_length_a       4.28167
_cell_length_b       4.28167
_cell_length_c       5.78976
_cell_angle_alpha    111.701
_cell_angle_beta     111.701
_cell_angle_gamma    90

_space_group_name_H-M_alt    "P 1"
_space_group_IT_number       1

loop_
  _space_group_symop_operation_xyz
  'x, y, z'

loop_
  _atom_site_type_symbol
  _atom_site_label
  _atom_site_symmetry_multiplicity
  _atom_site_fract_x
  _atom_site_fract_y
  _atom_site_fract_z
  _atom_site_occupancy
  Ce  Ce1       1.0  0.99600  0.99600  0.99200  1.0000
  Rh  Rh1       1.0  0.34200  0.34200  0.68400  1.0000
  Si  Si1       1.0  0.58500  0.58500  0.17000  1.0000
  Si  Si2       1.0  0.73400  0.23400  0.46800  1.0000
  Si  Si3       1.0  0.23400  0.73400  0.46800  1.0000
