data_image0
_chemical_formula_structural       Cs6Mo2
_chemical_formula_sum              "Cs6 Mo2"
_cell_length_a       9.37122
_cell_length_b       9.37122
_cell_length_c       7.12383
_cell_angle_alpha    90
_cell_angle_beta     90
_cell_angle_gamma    120

_space_group_name_H-M_alt    "P 1"
_space_group_IT_number       1

loop_
  _space_group_symop_operation_xyz
  'x, y, z'

loop_
  _atom_site_type_symbol
  _atom_site_label
  _atom_site_symmetry_multiplicity
  _atom_site_fract_x
  _atom_site_fract_y
  _atom_site_fract_z
  _atom_site_occupancy
  Cs  Cs1       1.0  0.18000  0.36000  0.25000  1.0000
  Cs  Cs2       1.0  0.64000  0.82000  0.25000  1.0000
  Cs  Cs3       1.0  0.18000  0.82000  0.25000  1.0000
  Cs  Cs4       1.0  0.82000  0.64000  0.75000  1.0000
  Cs  Cs5       1.0  0.36000  0.18000  0.75000  1.0000
  Cs  Cs6       1.0  0.82000  0.18000  0.75000  1.0000
  Mo  Mo1       1.0  0.33300  0.66700  0.75000  1.0000
  Mo  Mo2       1.0  0.66700  0.33300  0.25000  1.0000
