data_image0
_chemical_formula_structural       Au4Mn
_chemical_formula_sum              "Au4 Mn1"
_cell_length_a       4.05149
_cell_length_b       5.06194
_cell_length_c       5.06194
_cell_angle_alpha    99.2158
_cell_angle_beta     66.4098
_cell_angle_gamma    113.59

_space_group_name_H-M_alt    "P 1"
_space_group_IT_number       1

loop_
  _space_group_symop_operation_xyz
  'x, y, z'

loop_
  _atom_site_type_symbol
  _atom_site_label
  _atom_site_symmetry_multiplicity
  _atom_site_fract_x
  _atom_site_fract_y
  _atom_site_fract_z
  _atom_site_occupancy
  Au  Au1       1.0  0.60200  0.39700  0.19300  1.0000
  Au  Au2       1.0  0.20500  0.80700  0.39700  1.0000
  Au  Au3       1.0  0.79500  0.19300  0.60300  1.0000
  Au  Au4       1.0  0.39800  0.60300  0.80700  1.0000
  Mn  Mn1       1.0  0.00000  0.00000  0.00000  1.0000
