data_image0
_chemical_formula_structural       Li2Zn4
_chemical_formula_sum              "Li2 Zn4"
_cell_length_a       4.7091
_cell_length_b       4.7091
_cell_length_c       4.36103
_cell_angle_alpha    90
_cell_angle_beta     90
_cell_angle_gamma    59.9986

_space_group_name_H-M_alt    "P 1"
_space_group_IT_number       1

loop_
  _space_group_symop_operation_xyz
  'x, y, z'

loop_
  _atom_site_type_symbol
  _atom_site_label
  _atom_site_symmetry_multiplicity
  _atom_site_fract_x
  _atom_site_fract_y
  _atom_site_fract_z
  _atom_site_occupancy
  Li  Li1       1.0  0.00000  0.00000  0.00000  1.0000
  Li  Li2       1.0  0.33300  0.33300  0.00000  1.0000
  Zn  Zn1       1.0  0.66700  0.66700  0.00000  1.0000
  Zn  Zn2       1.0  0.66700  0.00156  0.50000  1.0000
  Zn  Zn3       1.0  0.00157  0.33200  0.50000  1.0000
  Zn  Zn4       1.0  0.33200  0.66700  0.50000  1.0000
