data_image0
_chemical_formula_structural       Mn2Sn4
_chemical_formula_sum              "Mn2 Sn4"
_cell_length_a       5.4079
_cell_length_b       5.40649
_cell_length_c       5.40649
_cell_angle_alpha    104.485
_cell_angle_beta     59.9914
_cell_angle_gamma    120.009

_space_group_name_H-M_alt    "P 1"
_space_group_IT_number       1

loop_
  _space_group_symop_operation_xyz
  'x, y, z'

loop_
  _atom_site_type_symbol
  _atom_site_label
  _atom_site_symmetry_multiplicity
  _atom_site_fract_x
  _atom_site_fract_y
  _atom_site_fract_z
  _atom_site_occupancy
  Mn  Mn1       1.0  0.25000  0.00000  0.00000  1.0000
  Mn  Mn2       1.0  0.75000  0.00000  0.00000  1.0000
  Sn  Sn1       1.0  0.16400  0.50000  0.17100  1.0000
  Sn  Sn2       1.0  0.33600  0.17100  0.50000  1.0000
  Sn  Sn3       1.0  0.66400  0.82900  0.50000  1.0000
  Sn  Sn4       1.0  0.83600  0.50000  0.82900  1.0000
