data_image0
_chemical_formula_structural       CsCu3S2
_chemical_formula_sum              "Cs1 Cu3 S2"
_cell_length_a       5.43832
_cell_length_b       5.43805
_cell_length_c       6.39736
_cell_angle_alpha    90
_cell_angle_beta     89.9976
_cell_angle_gamma    119.998

_space_group_name_H-M_alt    "P 1"
_space_group_IT_number       1

loop_
  _space_group_symop_operation_xyz
  'x, y, z'

loop_
  _atom_site_type_symbol
  _atom_site_label
  _atom_site_symmetry_multiplicity
  _atom_site_fract_x
  _atom_site_fract_y
  _atom_site_fract_z
  _atom_site_occupancy
  Cs  Cs1       1.0  0.00000  0.00000  0.50000  1.0000
  Cu  Cu1       1.0  0.00000  0.50000  1.00000  1.0000
  Cu  Cu2       1.0  0.50000  0.00000  0.00000  1.0000
  Cu  Cu3       1.0  0.50000  0.50000  0.00000  1.0000
  S   S1        1.0  0.33300  0.66700  0.23500  1.0000
  S   S2        1.0  0.66700  0.33300  0.76500  1.0000
