data_image0
_chemical_formula_structural       Mg8Nb6
_chemical_formula_sum              "Mg8 Nb6"
_cell_length_a       8.16106
_cell_length_b       8.16295
_cell_length_c       4.92555
_cell_angle_alpha    90
_cell_angle_beta     90
_cell_angle_gamma    60.1179

_space_group_name_H-M_alt    "P 1"
_space_group_IT_number       1

loop_
  _space_group_symop_operation_xyz
  'x, y, z'

loop_
  _atom_site_type_symbol
  _atom_site_label
  _atom_site_symmetry_multiplicity
  _atom_site_fract_x
  _atom_site_fract_y
  _atom_site_fract_z
  _atom_site_occupancy
  Mg  Mg1       1.0  0.56400  0.15100  0.00000  1.0000
  Mg  Mg2       1.0  0.14300  0.28600  0.00000  1.0000
  Mg  Mg3       1.0  0.85600  0.70700  0.00000  1.0000
  Mg  Mg4       1.0  0.00856  0.99900  0.00000  1.0000
  Mg  Mg5       1.0  0.38800  0.08670  0.50000  1.0000
  Mg  Mg6       1.0  0.94400  0.23900  0.50000  1.0000
  Mg  Mg7       1.0  0.09620  0.53100  0.50000  1.0000
  Mg  Mg8       1.0  0.80900  0.95200  0.50000  1.0000
  Nb  Nb1       1.0  0.69000  0.44600  0.00000  1.0000
  Nb  Nb2       1.0  0.30500  0.57800  0.00000  1.0000
  Nb  Nb3       1.0  0.43500  0.83200  0.00000  1.0000
  Nb  Nb4       1.0  0.51800  0.40600  0.50000  1.0000
  Nb  Nb5       1.0  0.64800  0.66000  0.50000  1.0000
  Nb  Nb6       1.0  0.26200  0.79200  0.50000  1.0000
