data_image0
_chemical_formula_structural       Co4Sc6
_chemical_formula_sum              "Co4 Sc6"
_cell_length_a       6.08946
_cell_length_b       6.08946
_cell_length_c       6.76518
_cell_angle_alpha    116.747
_cell_angle_beta     63.2525
_cell_angle_gamma    120

_space_group_name_H-M_alt    "P 1"
_space_group_IT_number       1

loop_
  _space_group_symop_operation_xyz
  'x, y, z'

loop_
  _atom_site_type_symbol
  _atom_site_label
  _atom_site_symmetry_multiplicity
  _atom_site_fract_x
  _atom_site_fract_y
  _atom_site_fract_z
  _atom_site_occupancy
  Co  Co1       1.0  0.32200  0.67800  0.03260  1.0000
  Co  Co2       1.0  0.17800  0.82200  0.46700  1.0000
  Co  Co3       1.0  0.82200  0.17800  0.53300  1.0000
  Co  Co4       1.0  0.67800  0.32200  0.96700  1.0000
  Sc  Sc1       1.0  0.88700  0.38700  0.25000  1.0000
  Sc  Sc2       1.0  0.25000  0.11300  0.25000  1.0000
  Sc  Sc3       1.0  0.61300  0.75000  0.25000  1.0000
  Sc  Sc4       1.0  0.38700  0.25000  0.75000  1.0000
  Sc  Sc5       1.0  0.75000  0.88700  0.75000  1.0000
  Sc  Sc6       1.0  0.11300  0.61300  0.75000  1.0000
