data_image0
_chemical_formula_structural       Co4Th6
_chemical_formula_sum              "Co4 Th6"
_cell_length_a       6.78547
_cell_length_b       6.78547
_cell_length_c       7.2893
_cell_angle_alpha    117.739
_cell_angle_beta     62.2613
_cell_angle_gamma    120

_space_group_name_H-M_alt    "P 1"
_space_group_IT_number       1

loop_
  _space_group_symop_operation_xyz
  'x, y, z'

loop_
  _atom_site_type_symbol
  _atom_site_label
  _atom_site_symmetry_multiplicity
  _atom_site_fract_x
  _atom_site_fract_y
  _atom_site_fract_z
  _atom_site_occupancy
  Co  Co1       1.0  0.32400  0.67600  0.02750  1.0000
  Co  Co2       1.0  0.17600  0.82400  0.47300  1.0000
  Co  Co3       1.0  0.82400  0.17600  0.52700  1.0000
  Co  Co4       1.0  0.67600  0.32400  0.97300  1.0000
  Th  Th1       1.0  0.25000  0.10300  0.25000  1.0000
  Th  Th2       1.0  0.89700  0.39700  0.25000  1.0000
  Th  Th3       1.0  0.60300  0.75000  0.25000  1.0000
  Th  Th4       1.0  0.39700  0.25000  0.75000  1.0000
  Th  Th5       1.0  0.10300  0.60300  0.75000  1.0000
  Th  Th6       1.0  0.75000  0.89700  0.75000  1.0000
