data_image0
_chemical_formula_structural       Co2O8Pa4
_chemical_formula_sum              "Co2 O8 Pa4"
_cell_length_a       6.65849
_cell_length_b       6.65849
_cell_length_c       6.65849
_cell_angle_alpha    120.199
_cell_angle_beta     89.6556
_cell_angle_gamma    120.199

_space_group_name_H-M_alt    "P 1"
_space_group_IT_number       1

loop_
  _space_group_symop_operation_xyz
  'x, y, z'

loop_
  _atom_site_type_symbol
  _atom_site_label
  _atom_site_symmetry_multiplicity
  _atom_site_fract_x
  _atom_site_fract_y
  _atom_site_fract_z
  _atom_site_occupancy
  Co  Co1       1.0  0.00000  0.00000  0.00000  1.0000
  Co  Co2       1.0  0.75000  0.50000  0.25000  1.0000
  O   O1        1.0  0.12300  0.24200  0.36500  1.0000
  O   O2        1.0  0.62700  0.74200  0.36900  1.0000
  O   O3        1.0  0.11500  0.74200  0.37300  1.0000
  O   O4        1.0  0.63100  0.25800  0.37300  1.0000
  O   O5        1.0  0.11900  0.24200  0.87700  1.0000
  O   O6        1.0  0.63500  0.75800  0.87700  1.0000
  O   O7        1.0  0.12300  0.75800  0.88100  1.0000
  O   O8        1.0  0.62700  0.25800  0.88500  1.0000
  Pa  Pa1       1.0  0.37500  0.75000  0.12500  1.0000
  Pa  Pa2       1.0  0.37500  0.25000  0.62500  1.0000
  Pa  Pa3       1.0  0.37500  0.75000  0.62500  1.0000
  Pa  Pa4       1.0  0.87500  0.25000  0.62500  1.0000
