data_image0
_chemical_formula_structural       B2Na4O8
_chemical_formula_sum              "B2 Na4 O8"
_cell_length_a       5.92756
_cell_length_b       5.92756
_cell_length_c       5.92756
_cell_angle_alpha    119.999
_cell_angle_beta     90.0019
_cell_angle_gamma    119.999

_space_group_name_H-M_alt    "P 1"
_space_group_IT_number       1

loop_
  _space_group_symop_operation_xyz
  'x, y, z'

loop_
  _atom_site_type_symbol
  _atom_site_label
  _atom_site_symmetry_multiplicity
  _atom_site_fract_x
  _atom_site_fract_y
  _atom_site_fract_z
  _atom_site_occupancy
  B   B1        1.0  0.00000  0.00000  0.00000  1.0000
  B   B2        1.0  0.75000  0.50000  0.25000  1.0000
  Na  Na1       1.0  0.37500  0.75000  0.12500  1.0000
  Na  Na2       1.0  0.37500  0.25000  0.62500  1.0000
  Na  Na3       1.0  0.37500  0.75000  0.62500  1.0000
  Na  Na4       1.0  0.87500  0.25000  0.62500  1.0000
  O   O1        1.0  0.09950  0.19900  0.29900  1.0000
  O   O2        1.0  0.04850  0.69900  0.35000  1.0000
  O   O3        1.0  0.65000  0.30100  0.35000  1.0000
  O   O4        1.0  0.65000  0.69900  0.35000  1.0000
  O   O5        1.0  0.09950  0.80100  0.90000  1.0000
  O   O6        1.0  0.09950  0.19900  0.90000  1.0000
  O   O7        1.0  0.70100  0.80100  0.90000  1.0000
  O   O8        1.0  0.65000  0.30100  0.95100  1.0000
