data_image0
_chemical_formula_structural       Sb4Th2
_chemical_formula_sum              "Sb4 Th2"
_cell_length_a       4.41631
_cell_length_b       4.41631
_cell_length_c       9.15138
_cell_angle_alpha    90
_cell_angle_beta     90
_cell_angle_gamma    90

_space_group_name_H-M_alt    "P 1"
_space_group_IT_number       1

loop_
  _space_group_symop_operation_xyz
  'x, y, z'

loop_
  _atom_site_type_symbol
  _atom_site_label
  _atom_site_symmetry_multiplicity
  _atom_site_fract_x
  _atom_site_fract_y
  _atom_site_fract_z
  _atom_site_occupancy
  Sb  Sb1       1.0  0.00000  0.00000  0.00000  1.0000
  Sb  Sb2       1.0  0.50000  0.50000  0.00000  1.0000
  Sb  Sb3       1.0  0.50000  0.00000  0.36400  1.0000
  Sb  Sb4       1.0  0.00000  0.50000  0.63600  1.0000
  Th  Th1       1.0  0.00000  0.50000  0.27700  1.0000
  Th  Th2       1.0  0.50000  0.00000  0.72300  1.0000
