data_image0
_chemical_formula_structural       B4Co10Ti6
_chemical_formula_sum              "B4 Co10 Ti6"
_cell_length_a       8.41428
_cell_length_b       8.41428
_cell_length_c       3.05552
_cell_angle_alpha    90
_cell_angle_beta     90
_cell_angle_gamma    90

_space_group_name_H-M_alt    "P 1"
_space_group_IT_number       1

loop_
  _space_group_symop_operation_xyz
  'x, y, z'

loop_
  _atom_site_type_symbol
  _atom_site_label
  _atom_site_symmetry_multiplicity
  _atom_site_fract_x
  _atom_site_fract_y
  _atom_site_fract_z
  _atom_site_occupancy
  B   B1        1.0  0.37900  0.12100  0.00000  1.0000
  B   B2        1.0  0.87900  0.37900  0.00000  1.0000
  B   B3        1.0  0.12100  0.62100  0.00000  1.0000
  B   B4        1.0  0.62100  0.87900  0.00000  1.0000
  Co  Co1       1.0  0.50000  0.00000  0.50000  1.0000
  Co  Co2       1.0  0.22000  0.07120  0.50000  1.0000
  Co  Co3       1.0  0.92900  0.22000  0.50000  1.0000
  Co  Co4       1.0  0.42900  0.28000  0.50000  1.0000
  Co  Co5       1.0  0.72000  0.42900  0.50000  1.0000
  Co  Co6       1.0  0.00000  0.50000  0.50000  1.0000
  Co  Co7       1.0  0.28000  0.57100  0.50000  1.0000
  Co  Co8       1.0  0.57100  0.72000  0.50000  1.0000
  Co  Co9       1.0  0.07120  0.78000  0.50000  1.0000
  Co  Co10      1.0  0.78000  0.92900  0.50000  1.0000
  Ti  Ti1       1.0  0.00000  0.00000  0.00000  1.0000
  Ti  Ti2       1.0  0.67400  0.17400  0.00000  1.0000
  Ti  Ti3       1.0  0.17400  0.32600  0.00000  1.0000
  Ti  Ti4       1.0  0.50000  0.50000  0.00000  1.0000
  Ti  Ti5       1.0  0.82600  0.67400  0.00000  1.0000
  Ti  Ti6       1.0  0.32600  0.82600  0.00000  1.0000
