data_image0
_chemical_formula_structural       C8H16N16
_chemical_formula_sum              "C8 H16 N16"
_cell_length_a       6.51999
_cell_length_b       6.37733
_cell_length_c       8.9239
_cell_angle_alpha    90
_cell_angle_beta     90
_cell_angle_gamma    90

_space_group_name_H-M_alt    "P 1"
_space_group_IT_number       1

loop_
  _space_group_symop_operation_xyz
  'x, y, z'

loop_
  _atom_site_type_symbol
  _atom_site_label
  _atom_site_symmetry_multiplicity
  _atom_site_fract_x
  _atom_site_fract_y
  _atom_site_fract_z
  _atom_site_occupancy
  C   C1        1.0  0.14400  0.07760  0.23400  1.0000
  C   C2        1.0  0.35600  0.57800  0.23400  1.0000
  C   C3        1.0  0.64400  0.07760  0.26600  1.0000
  C   C4        1.0  0.85600  0.57800  0.26600  1.0000
  C   C5        1.0  0.14400  0.42200  0.73400  1.0000
  C   C6        1.0  0.35600  0.92200  0.73400  1.0000
  C   C7        1.0  0.64400  0.42200  0.76600  1.0000
  C   C8        1.0  0.85600  0.92200  0.76600  1.0000
  H   H1        1.0  0.21400  0.09720  0.01160  1.0000
  H   H2        1.0  0.28600  0.59700  0.01160  1.0000
  H   H3        1.0  0.04300  0.29200  0.08880  1.0000
  H   H4        1.0  0.45700  0.79200  0.08880  1.0000
  H   H5        1.0  0.54300  0.29200  0.41100  1.0000
  H   H6        1.0  0.95700  0.79200  0.41100  1.0000
  H   H7        1.0  0.71400  0.09720  0.48800  1.0000
  H   H8        1.0  0.78600  0.59700  0.48800  1.0000
  H   H9        1.0  0.21400  0.40300  0.51200  1.0000
  H   H10       1.0  0.28600  0.90300  0.51200  1.0000
  H   H11       1.0  0.04300  0.20800  0.58900  1.0000
  H   H12       1.0  0.45700  0.70800  0.58900  1.0000
  H   H13       1.0  0.54300  0.20800  0.91100  1.0000
  H   H14       1.0  0.95700  0.70800  0.91100  1.0000
  H   H15       1.0  0.71400  0.40300  0.98800  1.0000
  H   H16       1.0  0.78600  0.90300  0.98800  1.0000
  N   N1        1.0  0.14300  0.16800  0.10300  1.0000
  N   N2        1.0  0.35700  0.66800  0.10300  1.0000
  N   N3        1.0  0.64500  0.00110  0.14600  1.0000
  N   N4        1.0  0.85500  0.50100  0.14600  1.0000
  N   N5        1.0  0.14500  0.00110  0.35400  1.0000
  N   N6        1.0  0.35500  0.50100  0.35400  1.0000
  N   N7        1.0  0.64300  0.16800  0.39700  1.0000
  N   N8        1.0  0.85700  0.66800  0.39700  1.0000
  N   N9        1.0  0.14300  0.33200  0.60300  1.0000
  N   N10       1.0  0.35700  0.83200  0.60300  1.0000
  N   N11       1.0  0.64500  0.49900  0.64600  1.0000
  N   N12       1.0  0.85500  0.99900  0.64600  1.0000
  N   N13       1.0  0.14500  0.49900  0.85400  1.0000
  N   N14       1.0  0.35500  0.99900  0.85400  1.0000
  N   N15       1.0  0.64300  0.33200  0.89700  1.0000
  N   N16       1.0  0.85700  0.83200  0.89700  1.0000
