data_image0
_chemical_formula_structural       C4H12N6O14P2V2
_chemical_formula_sum              "C4 H12 N6 O14 P2 V2"
_cell_length_a       6.12318
_cell_length_b       7.74384
_cell_length_c       8.87852
_cell_angle_alpha    67.7882
_cell_angle_beta     71.5925
_cell_angle_gamma    81.276

_space_group_name_H-M_alt    "P 1"
_space_group_IT_number       1

loop_
  _space_group_symop_operation_xyz
  'x, y, z'

loop_
  _atom_site_type_symbol
  _atom_site_label
  _atom_site_symmetry_multiplicity
  _atom_site_fract_x
  _atom_site_fract_y
  _atom_site_fract_z
  _atom_site_occupancy
  C   C1        1.0  0.83000  0.88600  0.46300  1.0000
  C   C2        1.0  0.47600  0.60500  0.47700  1.0000
  C   C3        1.0  0.52400  0.39500  0.52300  1.0000
  C   C4        1.0  0.17000  0.11400  0.53700  1.0000
  H   H1        1.0  0.94800  0.97300  0.20400  1.0000
  H   H2        1.0  0.29100  0.16500  0.28100  1.0000
  H   H3        1.0  0.77100  0.13600  0.28700  1.0000
  H   H4        1.0  0.95900  0.67000  0.38400  1.0000
  H   H5        1.0  0.10300  0.38100  0.39900  1.0000
  H   H6        1.0  0.34400  0.93900  0.41000  1.0000
  H   H7        1.0  0.65600  0.06090  0.59000  1.0000
  H   H8        1.0  0.89700  0.61900  0.60100  1.0000
  H   H9        1.0  0.04060  0.33000  0.61600  1.0000
  H   H10       1.0  0.22900  0.86400  0.71300  1.0000
  H   H11       1.0  0.70900  0.83500  0.71900  1.0000
  H   H12       1.0  0.05230  0.02660  0.79600  1.0000
  N   N1        1.0  0.84400  0.00566  0.30700  1.0000
  N   N2        1.0  0.28200  0.07120  0.40000  1.0000
  N   N3        1.0  0.93400  0.71600  0.48200  1.0000
  N   N4        1.0  0.06550  0.28400  0.51800  1.0000
  N   N5        1.0  0.71800  0.92900  0.60000  1.0000
  N   N6        1.0  0.15600  0.99400  0.69300  1.0000
  O   O1        1.0  0.29200  0.25600  0.02680  1.0000
  O   O2        1.0  0.18200  0.86700  0.06460  1.0000
  O   O3        1.0  0.76800  0.36700  0.08320  1.0000
  O   O4        1.0  0.35200  0.53200  0.18500  1.0000
  O   O5        1.0  0.94500  0.57300  0.20600  1.0000
  O   O6        1.0  0.52700  0.70600  0.32000  1.0000
  O   O7        1.0  0.61000  0.33600  0.40300  1.0000
  O   O8        1.0  0.39000  0.66400  0.59700  1.0000
  O   O9        1.0  0.47300  0.29400  0.68000  1.0000
  O   O10       1.0  0.05540  0.42700  0.79400  1.0000
  O   O11       1.0  0.64800  0.46700  0.81500  1.0000
  O   O12       1.0  0.23200  0.63300  0.91700  1.0000
  O   O13       1.0  0.81800  0.13300  0.93500  1.0000
  O   O14       1.0  0.70800  0.74400  0.97300  1.0000
  P   P1        1.0  0.18000  0.66700  0.08880  1.0000
  P   P2        1.0  0.82000  0.33300  0.91100  1.0000
  V   V1        1.0  0.66600  0.57200  0.15100  1.0000
  V   V2        1.0  0.33400  0.42800  0.84900  1.0000
