data_image0
_chemical_formula_structural       Cu2LuS2
_chemical_formula_sum              "Cu2 Lu1 S2"
_cell_length_a       3.9321
_cell_length_b       3.9321
_cell_length_c       6.17566
_cell_angle_alpha    90.0058
_cell_angle_beta     89.9942
_cell_angle_gamma    119.995

_space_group_name_H-M_alt    "P 1"
_space_group_IT_number       1

loop_
  _space_group_symop_operation_xyz
  'x, y, z'

loop_
  _atom_site_type_symbol
  _atom_site_label
  _atom_site_symmetry_multiplicity
  _atom_site_fract_x
  _atom_site_fract_y
  _atom_site_fract_z
  _atom_site_occupancy
  Cu  Cu1       1.0  0.33300  0.66700  0.33700  1.0000
  Cu  Cu2       1.0  0.66700  0.33300  0.66300  1.0000
  Lu  Lu1       1.0  0.00000  0.00000  0.00000  1.0000
  S   S1        1.0  0.66700  0.33300  0.25800  1.0000
  S   S2        1.0  0.33300  0.66700  0.74200  1.0000
