data_image0
_chemical_formula_structural       Be3Pd2Ru2
_chemical_formula_sum              "Be3 Pd2 Ru2"
_cell_length_a       6.70405
_cell_length_b       6.70405
_cell_length_c       6.70405
_cell_angle_alpha    34.0596
_cell_angle_beta     34.0596
_cell_angle_gamma    34.0596

_space_group_name_H-M_alt    "P 1"
_space_group_IT_number       1

loop_
  _space_group_symop_operation_xyz
  'x, y, z'

loop_
  _atom_site_type_symbol
  _atom_site_label
  _atom_site_symmetry_multiplicity
  _atom_site_fract_x
  _atom_site_fract_y
  _atom_site_fract_z
  _atom_site_occupancy
  Be  Be1       1.0  0.37300  0.37300  0.37300  1.0000
  Be  Be2       1.0  0.62600  0.62600  0.62600  1.0000
  Be  Be3       1.0  0.87700  0.87700  0.87700  1.0000
  Pd  Pd1       1.0  0.00295  0.00295  0.00295  1.0000
  Pd  Pd2       1.0  0.49700  0.49700  0.49700  1.0000
  Ru  Ru1       1.0  0.24700  0.24700  0.24700  1.0000
  Ru  Ru2       1.0  0.75300  0.75300  0.75300  1.0000
