data_image0
_chemical_formula_structural       Cd2Cr2Sr3
_chemical_formula_sum              "Cd2 Cr2 Sr3"
_cell_length_a       9.45499
_cell_length_b       9.45499
_cell_length_c       9.45499
_cell_angle_alpha    34.1337
_cell_angle_beta     34.1337
_cell_angle_gamma    34.1337

_space_group_name_H-M_alt    "P 1"
_space_group_IT_number       1

loop_
  _space_group_symop_operation_xyz
  'x, y, z'

loop_
  _atom_site_type_symbol
  _atom_site_label
  _atom_site_symmetry_multiplicity
  _atom_site_fract_x
  _atom_site_fract_y
  _atom_site_fract_z
  _atom_site_occupancy
  Cd  Cd1       1.0  0.00767  0.00767  0.00767  1.0000
  Cd  Cd2       1.0  0.50000  0.50000  0.50000  1.0000
  Cr  Cr1       1.0  0.24200  0.24200  0.24200  1.0000
  Cr  Cr2       1.0  0.75000  0.75000  0.75000  1.0000
  Sr  Sr1       1.0  0.37700  0.37700  0.37700  1.0000
  Sr  Sr2       1.0  0.62600  0.62600  0.62600  1.0000
  Sr  Sr3       1.0  0.87300  0.87300  0.87300  1.0000
