data_image0
_chemical_formula_structural       Cd2Mg3W2
_chemical_formula_sum              "Cd2 Mg3 W2"
_cell_length_a       7.42932
_cell_length_b       7.42932
_cell_length_c       7.42932
_cell_angle_alpha    36.9919
_cell_angle_beta     36.9919
_cell_angle_gamma    36.9919

_space_group_name_H-M_alt    "P 1"
_space_group_IT_number       1

loop_
  _space_group_symop_operation_xyz
  'x, y, z'

loop_
  _atom_site_type_symbol
  _atom_site_label
  _atom_site_symmetry_multiplicity
  _atom_site_fract_x
  _atom_site_fract_y
  _atom_site_fract_z
  _atom_site_occupancy
  Cd  Cd1       1.0  0.20400  0.20400  0.20400  1.0000
  Cd  Cd2       1.0  0.76300  0.76300  0.76300  1.0000
  Mg  Mg1       1.0  0.33800  0.33800  0.33800  1.0000
  Mg  Mg2       1.0  0.61800  0.61800  0.61800  1.0000
  Mg  Mg3       1.0  0.91500  0.91500  0.91500  1.0000
  W   W1        1.0  0.07290  0.07290  0.07290  1.0000
  W   W2        1.0  0.46400  0.46400  0.46400  1.0000
