data_image0
_chemical_formula_structural       Al2Hf3Zn2
_chemical_formula_sum              "Al2 Hf3 Zn2"
_cell_length_a       8.04827
_cell_length_b       8.04827
_cell_length_c       8.04827
_cell_angle_alpha    33.1938
_cell_angle_beta     33.1938
_cell_angle_gamma    33.1938

_space_group_name_H-M_alt    "P 1"
_space_group_IT_number       1

loop_
  _space_group_symop_operation_xyz
  'x, y, z'

loop_
  _atom_site_type_symbol
  _atom_site_label
  _atom_site_symmetry_multiplicity
  _atom_site_fract_x
  _atom_site_fract_y
  _atom_site_fract_z
  _atom_site_occupancy
  Al  Al1       1.0  0.24400  0.24400  0.24400  1.0000
  Al  Al2       1.0  0.75300  0.75300  0.75300  1.0000
  Hf  Hf1       1.0  0.37600  0.37600  0.37600  1.0000
  Hf  Hf2       1.0  0.62500  0.62500  0.62500  1.0000
  Hf  Hf3       1.0  0.87300  0.87300  0.87300  1.0000
  Zn  Zn1       1.0  0.00822  0.00822  0.00822  1.0000
  Zn  Zn2       1.0  0.49500  0.49500  0.49500  1.0000
