data_image0
_chemical_formula_structural       B2Cd2Hf3
_chemical_formula_sum              "B2 Cd2 Hf3"
_cell_length_a       11.0049
_cell_length_b       11.0049
_cell_length_c       11.0049
_cell_angle_alpha    19.3989
_cell_angle_beta     19.3989
_cell_angle_gamma    19.3989

_space_group_name_H-M_alt    "P 1"
_space_group_IT_number       1

loop_
  _space_group_symop_operation_xyz
  'x, y, z'

loop_
  _atom_site_type_symbol
  _atom_site_label
  _atom_site_symmetry_multiplicity
  _atom_site_fract_x
  _atom_site_fract_y
  _atom_site_fract_z
  _atom_site_occupancy
  B   B1        1.0  0.54000  0.54000  0.54000  1.0000
  B   B2        1.0  0.99900  0.99900  0.99900  1.0000
  Cd  Cd1       1.0  0.23700  0.23700  0.23700  1.0000
  Cd  Cd2       1.0  0.75900  0.75900  0.75900  1.0000
  Hf  Hf1       1.0  0.36600  0.36600  0.36600  1.0000
  Hf  Hf2       1.0  0.63000  0.63000  0.63000  1.0000
  Hf  Hf3       1.0  0.84400  0.84400  0.84400  1.0000
