data_image0
_chemical_formula_structural       Si3Tl2Zn2
_chemical_formula_sum              "Si3 Tl2 Zn2"
_cell_length_a       9.24206
_cell_length_b       9.24206
_cell_length_c       9.24206
_cell_angle_alpha    26.9762
_cell_angle_beta     26.9762
_cell_angle_gamma    26.9762

_space_group_name_H-M_alt    "P 1"
_space_group_IT_number       1

loop_
  _space_group_symop_operation_xyz
  'x, y, z'

loop_
  _atom_site_type_symbol
  _atom_site_label
  _atom_site_symmetry_multiplicity
  _atom_site_fract_x
  _atom_site_fract_y
  _atom_site_fract_z
  _atom_site_occupancy
  Si  Si1       1.0  0.33100  0.33100  0.33100  1.0000
  Si  Si2       1.0  0.62800  0.62800  0.62800  1.0000
  Si  Si3       1.0  0.93900  0.93900  0.93900  1.0000
  Tl  Tl1       1.0  0.20300  0.20300  0.20300  1.0000
  Tl  Tl2       1.0  0.75800  0.75800  0.75800  1.0000
  Zn  Zn1       1.0  0.03710  0.03710  0.03710  1.0000
  Zn  Zn2       1.0  0.47900  0.47900  0.47900  1.0000
