data_image0
_chemical_formula_structural       Cu2Ge3Hf2
_chemical_formula_sum              "Cu2 Ge3 Hf2"
_cell_length_a       8.75216
_cell_length_b       8.75216
_cell_length_c       8.75216
_cell_angle_alpha    27.4275
_cell_angle_beta     27.4275
_cell_angle_gamma    27.4275

_space_group_name_H-M_alt    "P 1"
_space_group_IT_number       1

loop_
  _space_group_symop_operation_xyz
  'x, y, z'

loop_
  _atom_site_type_symbol
  _atom_site_label
  _atom_site_symmetry_multiplicity
  _atom_site_fract_x
  _atom_site_fract_y
  _atom_site_fract_z
  _atom_site_occupancy
  Cu  Cu1       1.0  0.00241  0.00241  0.00241  1.0000
  Cu  Cu2       1.0  0.50000  0.50000  0.50000  1.0000
  Ge  Ge1       1.0  0.38200  0.38200  0.38200  1.0000
  Ge  Ge2       1.0  0.63400  0.63400  0.63400  1.0000
  Ge  Ge3       1.0  0.85700  0.85700  0.85700  1.0000
  Hf  Hf1       1.0  0.24600  0.24600  0.24600  1.0000
  Hf  Hf2       1.0  0.75400  0.75400  0.75400  1.0000
