data_image0
_chemical_formula_structural       C4H16N2O14V6
_chemical_formula_sum              "C4 H16 N2 O14 V6"
_cell_length_a       7.59657
_cell_length_b       6.66013
_cell_length_c       8.25958
_cell_angle_alpha    89.9999
_cell_angle_beta     98.1512
_cell_angle_gamma    90.0001

_space_group_name_H-M_alt    "P 1"
_space_group_IT_number       1

loop_
  _space_group_symop_operation_xyz
  'x, y, z'

loop_
  _atom_site_type_symbol
  _atom_site_label
  _atom_site_symmetry_multiplicity
  _atom_site_fract_x
  _atom_site_fract_y
  _atom_site_fract_z
  _atom_site_occupancy
  C   C1        1.0  0.70900  0.14700  0.00816  1.0000
  C   C2        1.0  0.11400  0.89400  0.12300  1.0000
  C   C3        1.0  0.88600  0.39400  0.87700  1.0000
  C   C4        1.0  0.29100  0.64700  0.99200  1.0000
  H   H1        1.0  0.68300  0.46200  0.00663  1.0000
  H   H2        1.0  0.01550  0.90400  0.01260  1.0000
  H   H3        1.0  0.58000  0.12800  0.04990  1.0000
  H   H4        1.0  0.27000  0.53100  0.08130  1.0000
  H   H5        1.0  0.81600  0.14300  0.11100  1.0000
  H   H6        1.0  0.38300  0.84900  0.17400  1.0000
  H   H7        1.0  0.12600  0.03720  0.18800  1.0000
  H   H8        1.0  0.07820  0.77200  0.20100  1.0000
  H   H9        1.0  0.92200  0.27200  0.79900  1.0000
  H   H10       1.0  0.87400  0.53700  0.81200  1.0000
  H   H11       1.0  0.61700  0.34900  0.82600  1.0000
  H   H12       1.0  0.18400  0.64300  0.88900  1.0000
  H   H13       1.0  0.73000  0.03140  0.91900  1.0000
  H   H14       1.0  0.42000  0.62800  0.95000  1.0000
  H   H15       1.0  0.98500  0.40400  0.98700  1.0000
  H   H16       1.0  0.31700  0.96200  0.99300  1.0000
  N   N1        1.0  0.28800  0.84700  0.07100  1.0000
  N   N2        1.0  0.71200  0.34700  0.92900  1.0000
  O   O1        1.0  0.69000  0.69200  0.13000  1.0000
  O   O2        1.0  0.07160  0.34100  0.24800  1.0000
  O   O3        1.0  0.44300  0.16500  0.28900  1.0000
  O   O4        1.0  0.46500  0.69500  0.38000  1.0000
  O   O5        1.0  0.74800  0.40100  0.39800  1.0000
  O   O6        1.0  0.96300  0.68700  0.42100  1.0000
  O   O7        1.0  0.74800  0.96200  0.42700  1.0000
  O   O8        1.0  0.25200  0.46200  0.57300  1.0000
  O   O9        1.0  0.03720  0.18700  0.57900  1.0000
  O   O10       1.0  0.25200  0.90100  0.60200  1.0000
  O   O11       1.0  0.53500  0.19500  0.62000  1.0000
  O   O12       1.0  0.55700  0.66500  0.71100  1.0000
  O   O13       1.0  0.92800  0.84100  0.75200  1.0000
  O   O14       1.0  0.31000  0.19200  0.87000  1.0000
  V   V1        1.0  0.71000  0.68700  0.33200  1.0000
  V   V2        1.0  0.01930  0.40600  0.42600  1.0000
  V   V3        1.0  0.61300  0.18400  0.43300  1.0000
  V   V4        1.0  0.38700  0.68400  0.56700  1.0000
  V   V5        1.0  0.98100  0.90600  0.57400  1.0000
  V   V6        1.0  0.29000  0.18700  0.66800  1.0000
