data_image0
_chemical_formula_structural       C8H24O8Si2
_chemical_formula_sum              "C8 H24 O8 Si2"
_cell_length_a       5.2471
_cell_length_b       8.59299
_cell_length_c       8.59299
_cell_angle_alpha    95.3487
_cell_angle_beta     72.223
_cell_angle_gamma    107.777

_space_group_name_H-M_alt    "P 1"
_space_group_IT_number       1

loop_
  _space_group_symop_operation_xyz
  'x, y, z'

loop_
  _atom_site_type_symbol
  _atom_site_label
  _atom_site_symmetry_multiplicity
  _atom_site_fract_x
  _atom_site_fract_y
  _atom_site_fract_z
  _atom_site_occupancy
  C   C1        1.0  0.15600  0.72100  0.06010  1.0000
  C   C2        1.0  0.78400  0.94000  0.22100  1.0000
  C   C3        1.0  0.56500  0.56000  0.27900  1.0000
  C   C4        1.0  0.99500  0.77900  0.44000  1.0000
  C   C5        1.0  0.00521  0.22100  0.56000  1.0000
  C   C6        1.0  0.43500  0.44000  0.72100  1.0000
  C   C7        1.0  0.21600  0.06010  0.77900  1.0000
  C   C8        1.0  0.84400  0.27900  0.94000  1.0000
  H   H1        1.0  0.33900  0.83100  0.03270  1.0000
  H   H2        1.0  0.22900  0.61800  0.07600  1.0000
  H   H3        1.0  0.69500  0.92400  0.11800  1.0000
  H   H4        1.0  0.01270  0.16800  0.13800  1.0000
  H   H5        1.0  0.84500  0.36200  0.16800  1.0000
  H   H6        1.0  0.49200  0.53300  0.16900  1.0000
  H   H7        1.0  0.62800  0.96700  0.33100  1.0000
  H   H8        1.0  0.15100  0.13800  0.33200  1.0000
  H   H9        1.0  0.48300  0.33200  0.36200  1.0000
  H   H10       1.0  0.38900  0.57600  0.38200  1.0000
  H   H11       1.0  0.18700  0.88200  0.42400  1.0000
  H   H12       1.0  0.04020  0.66900  0.46700  1.0000
  H   H13       1.0  0.96000  0.33100  0.53300  1.0000
  H   H14       1.0  0.81300  0.11800  0.57600  1.0000
  H   H15       1.0  0.61100  0.42400  0.61800  1.0000
  H   H16       1.0  0.51700  0.66800  0.63800  1.0000
  H   H17       1.0  0.84900  0.86200  0.66800  1.0000
  H   H18       1.0  0.37200  0.03270  0.66900  1.0000
  H   H19       1.0  0.50800  0.46700  0.83100  1.0000
  H   H20       1.0  0.15500  0.63800  0.83200  1.0000
  H   H21       1.0  0.98700  0.83200  0.86200  1.0000
  H   H22       1.0  0.30500  0.07600  0.88200  1.0000
  H   H23       1.0  0.77100  0.38200  0.92400  1.0000
  H   H24       1.0  0.66100  0.16900  0.96700  1.0000
  O   O1        1.0  0.97100  0.31500  0.07190  1.0000
  O   O2        1.0  0.04280  0.07190  0.18500  1.0000
  O   O3        1.0  0.65600  0.42800  0.31500  1.0000
  O   O4        1.0  0.22800  0.18500  0.42800  1.0000
  O   O5        1.0  0.77200  0.81500  0.57200  1.0000
  O   O6        1.0  0.34400  0.57200  0.68500  1.0000
  O   O7        1.0  0.95700  0.92800  0.81500  1.0000
  O   O8        1.0  0.02910  0.68500  0.92800  1.0000
  Si  Si1       1.0  0.87500  0.75000  0.25000  1.0000
  Si  Si2       1.0  0.12500  0.25000  0.75000  1.0000
