data_image0
_chemical_formula_structural       Cr3In2Ir2
_chemical_formula_sum              "Cr3 In2 Ir2"
_cell_length_a       7.07063
_cell_length_b       7.07063
_cell_length_c       7.07063
_cell_angle_alpha    36.6534
_cell_angle_beta     36.6534
_cell_angle_gamma    36.6534

_space_group_name_H-M_alt    "P 1"
_space_group_IT_number       1

loop_
  _space_group_symop_operation_xyz
  'x, y, z'

loop_
  _atom_site_type_symbol
  _atom_site_label
  _atom_site_symmetry_multiplicity
  _atom_site_fract_x
  _atom_site_fract_y
  _atom_site_fract_z
  _atom_site_occupancy
  Cr  Cr1       1.0  0.34600  0.34600  0.34600  1.0000
  Cr  Cr2       1.0  0.62900  0.62900  0.62900  1.0000
  Cr  Cr3       1.0  0.90900  0.90900  0.90900  1.0000
  In  In1       1.0  0.20000  0.20000  0.20000  1.0000
  In  In2       1.0  0.76500  0.76500  0.76500  1.0000
  Ir  Ir1       1.0  0.03300  0.03300  0.03300  1.0000
  Ir  Ir2       1.0  0.49200  0.49200  0.49200  1.0000
