data_image0
_chemical_formula_structural       Cl2O24Sr10V6
_chemical_formula_sum              "Cl2 O24 Sr10 V6"
_cell_length_a       10.172
_cell_length_b       10.172
_cell_length_c       7.28491
_cell_angle_alpha    90
_cell_angle_beta     90
_cell_angle_gamma    120

_space_group_name_H-M_alt    "P 1"
_space_group_IT_number       1

loop_
  _space_group_symop_operation_xyz
  'x, y, z'

loop_
  _atom_site_type_symbol
  _atom_site_label
  _atom_site_symmetry_multiplicity
  _atom_site_fract_x
  _atom_site_fract_y
  _atom_site_fract_z
  _atom_site_occupancy
  Cl  Cl1       1.0  0.00000  0.00000  0.00000  1.0000
  Cl  Cl2       1.0  0.00000  0.00000  0.50000  1.0000
  O   O1        1.0  0.74600  0.09660  0.06220  1.0000
  O   O2        1.0  0.35100  0.25400  0.06220  1.0000
  O   O3        1.0  0.90300  0.64900  0.06220  1.0000
  O   O4        1.0  0.52600  0.12900  0.25000  1.0000
  O   O5        1.0  0.87100  0.39700  0.25000  1.0000
  O   O6        1.0  0.60300  0.47400  0.25000  1.0000
  O   O7        1.0  0.32300  0.48700  0.25000  1.0000
  O   O8        1.0  0.16400  0.67700  0.25000  1.0000
  O   O9        1.0  0.51300  0.83600  0.25000  1.0000
  O   O10       1.0  0.35100  0.25400  0.43800  1.0000
  O   O11       1.0  0.90300  0.64900  0.43800  1.0000
  O   O12       1.0  0.74600  0.09660  0.43800  1.0000
  O   O13       1.0  0.25400  0.90300  0.56200  1.0000
  O   O14       1.0  0.09660  0.35100  0.56200  1.0000
  O   O15       1.0  0.64900  0.74600  0.56200  1.0000
  O   O16       1.0  0.48700  0.16400  0.75000  1.0000
  O   O17       1.0  0.83600  0.32300  0.75000  1.0000
  O   O18       1.0  0.67700  0.51300  0.75000  1.0000
  O   O19       1.0  0.39700  0.52600  0.75000  1.0000
  O   O20       1.0  0.12900  0.60300  0.75000  1.0000
  O   O21       1.0  0.47400  0.87200  0.75000  1.0000
  O   O22       1.0  0.09660  0.35100  0.93800  1.0000
  O   O23       1.0  0.64900  0.74600  0.93800  1.0000
  O   O24       1.0  0.25400  0.90300  0.93800  1.0000
  Sr  Sr1       1.0  0.33300  0.66700  0.00133  1.0000
  Sr  Sr2       1.0  0.00187  0.25000  0.25000  1.0000
  Sr  Sr3       1.0  0.75000  0.75200  0.25000  1.0000
  Sr  Sr4       1.0  0.24800  0.99800  0.25000  1.0000
  Sr  Sr5       1.0  0.33300  0.66700  0.49900  1.0000
  Sr  Sr6       1.0  0.66700  0.33300  0.50100  1.0000
  Sr  Sr7       1.0  0.75200  0.00187  0.75000  1.0000
  Sr  Sr8       1.0  0.25000  0.24800  0.75000  1.0000
  Sr  Sr9       1.0  0.99800  0.75000  0.75000  1.0000
  Sr  Sr10      1.0  0.66700  0.33300  0.99900  1.0000
  V   V1        1.0  0.62700  0.03170  0.25000  1.0000
  V   V2        1.0  0.40500  0.37300  0.25000  1.0000
  V   V3        1.0  0.96800  0.59500  0.25000  1.0000
  V   V4        1.0  0.03170  0.40500  0.75000  1.0000
  V   V5        1.0  0.59500  0.62700  0.75000  1.0000
  V   V6        1.0  0.37300  0.96800  0.75000  1.0000
