data_image0
_chemical_formula_structural       Cr3Cu2K2
_chemical_formula_sum              "Cr3 Cu2 K2"
_cell_length_a       9.98832
_cell_length_b       9.98832
_cell_length_c       9.98832
_cell_angle_alpha    26.7439
_cell_angle_beta     26.7439
_cell_angle_gamma    26.7439

_space_group_name_H-M_alt    "P 1"
_space_group_IT_number       1

loop_
  _space_group_symop_operation_xyz
  'x, y, z'

loop_
  _atom_site_type_symbol
  _atom_site_label
  _atom_site_symmetry_multiplicity
  _atom_site_fract_x
  _atom_site_fract_y
  _atom_site_fract_z
  _atom_site_occupancy
  Cr  Cr1       1.0  0.32200  0.32200  0.32200  1.0000
  Cr  Cr2       1.0  0.64400  0.64400  0.64400  1.0000
  Cr  Cr3       1.0  0.92000  0.92000  0.92000  1.0000
  Cu  Cu1       1.0  0.00578  0.00578  0.00578  1.0000
  Cu  Cu2       1.0  0.56000  0.56000  0.56000  1.0000
  K   K1        1.0  0.17200  0.17200  0.17200  1.0000
  K   K2        1.0  0.75100  0.75100  0.75100  1.0000
