data_image0
_chemical_formula_structural       Bi2Re2W3
_chemical_formula_sum              "Bi2 Re2 W3"
_cell_length_a       7.72418
_cell_length_b       7.72418
_cell_length_c       7.72418
_cell_angle_alpha    34.9202
_cell_angle_beta     34.9202
_cell_angle_gamma    34.9202

_space_group_name_H-M_alt    "P 1"
_space_group_IT_number       1

loop_
  _space_group_symop_operation_xyz
  'x, y, z'

loop_
  _atom_site_type_symbol
  _atom_site_label
  _atom_site_symmetry_multiplicity
  _atom_site_fract_x
  _atom_site_fract_y
  _atom_site_fract_z
  _atom_site_occupancy
  Bi  Bi1       1.0  0.05050  0.05050  0.05050  1.0000
  Bi  Bi2       1.0  0.48400  0.48400  0.48400  1.0000
  Re  Re1       1.0  0.23900  0.23900  0.23900  1.0000
  Re  Re2       1.0  0.76000  0.76000  0.76000  1.0000
  W   W1        1.0  0.34800  0.34800  0.34800  1.0000
  W   W2        1.0  0.61400  0.61400  0.61400  1.0000
  W   W3        1.0  0.88000  0.88000  0.88000  1.0000
