data_image0
_chemical_formula_structural       Ho2Mg2Sn2
_chemical_formula_sum              "Ho2 Mg2 Sn2"
_cell_length_a       4.37329
_cell_length_b       4.37329
_cell_length_c       8.50077
_cell_angle_alpha    104.906
_cell_angle_beta     104.906
_cell_angle_gamma    90

_space_group_name_H-M_alt    "P 1"
_space_group_IT_number       1

loop_
  _space_group_symop_operation_xyz
  'x, y, z'

loop_
  _atom_site_type_symbol
  _atom_site_label
  _atom_site_symmetry_multiplicity
  _atom_site_fract_x
  _atom_site_fract_y
  _atom_site_fract_z
  _atom_site_occupancy
  Ho  Ho1       1.0  0.66800  0.66800  0.33600  1.0000
  Ho  Ho2       1.0  0.33200  0.33200  0.66400  1.0000
  Mg  Mg1       1.0  0.50000  0.00000  0.00000  1.0000
  Mg  Mg2       1.0  0.00000  0.50000  0.00000  1.0000
  Sn  Sn1       1.0  0.13500  0.13500  0.27100  1.0000
  Sn  Sn2       1.0  0.86500  0.86500  0.72900  1.0000
