data_image0
_chemical_formula_structural       Cs2Ru5
_chemical_formula_sum              "Cs2 Ru5"
_cell_length_a       10.677
_cell_length_b       10.677
_cell_length_c       10.677
_cell_angle_alpha    23.8867
_cell_angle_beta     23.8867
_cell_angle_gamma    23.8867

_space_group_name_H-M_alt    "P 1"
_space_group_IT_number       1

loop_
  _space_group_symop_operation_xyz
  'x, y, z'

loop_
  _atom_site_type_symbol
  _atom_site_label
  _atom_site_symmetry_multiplicity
  _atom_site_fract_x
  _atom_site_fract_y
  _atom_site_fract_z
  _atom_site_occupancy
  Cs  Cs1       1.0  0.17300  0.17300  0.17300  1.0000
  Cs  Cs2       1.0  0.75000  0.75000  0.75000  1.0000
  Ru  Ru1       1.0  0.30200  0.30200  0.30200  1.0000
  Ru  Ru2       1.0  0.58300  0.58300  0.58300  1.0000
  Ru  Ru3       1.0  0.65700  0.65700  0.65700  1.0000
  Ru  Ru4       1.0  0.91700  0.91700  0.91700  1.0000
  Ru  Ru5       1.0  0.99200  0.99200  0.99200  1.0000
