data_image0
_chemical_formula_structural       Fe3K2Os2
_chemical_formula_sum              "Fe3 K2 Os2"
_cell_length_a       11.8056
_cell_length_b       11.8056
_cell_length_c       11.8056
_cell_angle_alpha    19.9555
_cell_angle_beta     19.9555
_cell_angle_gamma    19.9555

_space_group_name_H-M_alt    "P 1"
_space_group_IT_number       1

loop_
  _space_group_symop_operation_xyz
  'x, y, z'

loop_
  _atom_site_type_symbol
  _atom_site_label
  _atom_site_symmetry_multiplicity
  _atom_site_fract_x
  _atom_site_fract_y
  _atom_site_fract_z
  _atom_site_occupancy
  Fe  Fe1       1.0  0.29000  0.29000  0.29000  1.0000
  Fe  Fe2       1.0  0.65700  0.65700  0.65700  1.0000
  Fe  Fe3       1.0  0.92300  0.92300  0.92300  1.0000
  K   K1        1.0  0.18300  0.18300  0.18300  1.0000
  K   K2        1.0  0.74200  0.74200  0.74200  1.0000
  Os  Os1       1.0  0.58900  0.58900  0.58900  1.0000
  Os  Os2       1.0  0.99100  0.99100  0.99100  1.0000
