data_image0
_chemical_formula_structural       La2Li4O5
_chemical_formula_sum              "La2 Li4 O5"
_cell_length_a       4.68687
_cell_length_b       7.36807
_cell_length_c       4.76955
_cell_angle_alpha    71.1154
_cell_angle_beta     90
_cell_angle_gamma    90

_space_group_name_H-M_alt    "P 1"
_space_group_IT_number       1

loop_
  _space_group_symop_operation_xyz
  'x, y, z'

loop_
  _atom_site_type_symbol
  _atom_site_label
  _atom_site_symmetry_multiplicity
  _atom_site_fract_x
  _atom_site_fract_y
  _atom_site_fract_z
  _atom_site_occupancy
  La  La1       1.0  0.50000  0.68000  0.16000  1.0000
  La  La2       1.0  0.50000  0.32000  0.84000  1.0000
  Li  Li1       1.0  0.00000  0.00000  0.00000  1.0000
  Li  Li2       1.0  0.00000  0.36800  0.31600  1.0000
  Li  Li3       1.0  0.50000  0.00000  0.50000  1.0000
  Li  Li4       1.0  0.00000  0.63200  0.68400  1.0000
  O   O1        1.0  0.50000  0.00000  0.00000  1.0000
  O   O2        1.0  0.00000  0.67400  0.16300  1.0000
  O   O3        1.0  0.50000  0.29500  0.35200  1.0000
  O   O4        1.0  0.50000  0.70500  0.64800  1.0000
  O   O5        1.0  0.00000  0.32600  0.83700  1.0000
