data_image0
_chemical_formula_structural       Ru3Ti2V2
_chemical_formula_sum              "Ru3 Ti2 V2"
_cell_length_a       7.26704
_cell_length_b       7.26704
_cell_length_c       7.26704
_cell_angle_alpha    33.8827
_cell_angle_beta     33.8827
_cell_angle_gamma    33.8827

_space_group_name_H-M_alt    "P 1"
_space_group_IT_number       1

loop_
  _space_group_symop_operation_xyz
  'x, y, z'

loop_
  _atom_site_type_symbol
  _atom_site_label
  _atom_site_symmetry_multiplicity
  _atom_site_fract_x
  _atom_site_fract_y
  _atom_site_fract_z
  _atom_site_occupancy
  Ru  Ru1       1.0  0.37500  0.37500  0.37500  1.0000
  Ru  Ru2       1.0  0.62600  0.62600  0.62600  1.0000
  Ru  Ru3       1.0  0.87700  0.87700  0.87700  1.0000
  Ti  Ti1       1.0  0.24300  0.24300  0.24300  1.0000
  Ti  Ti2       1.0  0.75600  0.75600  0.75600  1.0000
  V   V1        1.0  0.00361  0.00361  0.00361  1.0000
  V   V2        1.0  0.49500  0.49500  0.49500  1.0000
