data_image0
_chemical_formula_structural       Bi2K2Pt3
_chemical_formula_sum              "Bi2 K2 Pt3"
_cell_length_a       10.6101
_cell_length_b       10.6101
_cell_length_c       10.6101
_cell_angle_alpha    25.9729
_cell_angle_beta     25.9729
_cell_angle_gamma    25.9729

_space_group_name_H-M_alt    "P 1"
_space_group_IT_number       1

loop_
  _space_group_symop_operation_xyz
  'x, y, z'

loop_
  _atom_site_type_symbol
  _atom_site_label
  _atom_site_symmetry_multiplicity
  _atom_site_fract_x
  _atom_site_fract_y
  _atom_site_fract_z
  _atom_site_occupancy
  Bi  Bi1       1.0  0.51100  0.51100  0.51100  1.0000
  Bi  Bi2       1.0  0.99900  0.99900  0.99900  1.0000
  K   K1        1.0  0.24900  0.24900  0.24900  1.0000
  K   K2        1.0  0.75600  0.75600  0.75600  1.0000
  Pt  Pt1       1.0  0.35000  0.35000  0.35000  1.0000
  Pt  Pt2       1.0  0.65600  0.65600  0.65600  1.0000
  Pt  Pt3       1.0  0.85400  0.85400  0.85400  1.0000
