data_image0
_chemical_formula_structural       K2Sr2Zn3
_chemical_formula_sum              "K2 Sr2 Zn3"
_cell_length_a       9.76255
_cell_length_b       9.76255
_cell_length_c       9.76255
_cell_angle_alpha    33.6545
_cell_angle_beta     33.6545
_cell_angle_gamma    33.6545

_space_group_name_H-M_alt    "P 1"
_space_group_IT_number       1

loop_
  _space_group_symop_operation_xyz
  'x, y, z'

loop_
  _atom_site_type_symbol
  _atom_site_label
  _atom_site_symmetry_multiplicity
  _atom_site_fract_x
  _atom_site_fract_y
  _atom_site_fract_z
  _atom_site_occupancy
  K   K1        1.0  0.24800  0.24800  0.24800  1.0000
  K   K2        1.0  0.75100  0.75100  0.75100  1.0000
  Sr  Sr1       1.0  0.50200  0.50200  0.50200  1.0000
  Sr  Sr2       1.0  0.99900  0.99900  0.99900  1.0000
  Zn  Zn1       1.0  0.37200  0.37200  0.37200  1.0000
  Zn  Zn2       1.0  0.62600  0.62600  0.62600  1.0000
  Zn  Zn3       1.0  0.87700  0.87700  0.87700  1.0000
