data_image0
_chemical_formula_structural       Co2Li4O5
_chemical_formula_sum              "Co2 Li4 O5"
_cell_length_a       3.9549
_cell_length_b       6.46661
_cell_length_c       3.91702
_cell_angle_alpha    72.3702
_cell_angle_beta     90
_cell_angle_gamma    90

_space_group_name_H-M_alt    "P 1"
_space_group_IT_number       1

loop_
  _space_group_symop_operation_xyz
  'x, y, z'

loop_
  _atom_site_type_symbol
  _atom_site_label
  _atom_site_symmetry_multiplicity
  _atom_site_fract_x
  _atom_site_fract_y
  _atom_site_fract_z
  _atom_site_occupancy
  Co  Co1       1.0  0.50000  0.67900  0.16000  1.0000
  Co  Co2       1.0  0.50000  0.32100  0.84000  1.0000
  Li  Li1       1.0  0.00000  0.00000  0.00000  1.0000
  Li  Li2       1.0  0.00000  0.37300  0.31300  1.0000
  Li  Li3       1.0  0.50000  0.00000  0.50000  1.0000
  Li  Li4       1.0  0.00000  0.62700  0.68700  1.0000
  O   O1        1.0  0.50000  0.00000  0.00000  1.0000
  O   O2        1.0  0.00000  0.69100  0.15400  1.0000
  O   O3        1.0  0.50000  0.34200  0.32900  1.0000
  O   O4        1.0  0.50000  0.65800  0.67100  1.0000
  O   O5        1.0  0.00000  0.30900  0.84600  1.0000
