data_image0
_chemical_formula_structural       Mn3Nb3Si3
_chemical_formula_sum              "Mn3 Nb3 Si3"
_cell_length_a       6.40419
_cell_length_b       6.40419
_cell_length_c       3.49919
_cell_angle_alpha    90
_cell_angle_beta     90
_cell_angle_gamma    120.005

_space_group_name_H-M_alt    "P 1"
_space_group_IT_number       1

loop_
  _space_group_symop_operation_xyz
  'x, y, z'

loop_
  _atom_site_type_symbol
  _atom_site_label
  _atom_site_symmetry_multiplicity
  _atom_site_fract_x
  _atom_site_fract_y
  _atom_site_fract_z
  _atom_site_occupancy
  Mn  Mn1       1.0  0.24500  0.00000  0.00000  1.0000
  Mn  Mn2       1.0  0.00000  0.24500  0.00000  1.0000
  Mn  Mn3       1.0  0.75500  0.75500  0.00000  1.0000
  Nb  Nb1       1.0  0.58800  0.00001  0.50000  1.0000
  Nb  Nb2       1.0  0.41300  0.41300  0.50000  1.0000
  Nb  Nb3       1.0  0.00001  0.58800  0.50000  1.0000
  Si  Si1       1.0  0.66700  0.33300  0.00000  1.0000
  Si  Si2       1.0  0.33300  0.66700  0.00000  1.0000
  Si  Si3       1.0  0.00000  0.00000  0.50000  1.0000
