data_image0
_chemical_formula_structural       F8Mg8O4
_chemical_formula_sum              "F8 Mg8 O4"
_cell_length_a       7.83685
_cell_length_b       7.83685
_cell_length_c       5.47859
_cell_angle_alpha    90
_cell_angle_beta     90
_cell_angle_gamma    90

_space_group_name_H-M_alt    "P 1"
_space_group_IT_number       1

loop_
  _space_group_symop_operation_xyz
  'x, y, z'

loop_
  _atom_site_type_symbol
  _atom_site_label
  _atom_site_symmetry_multiplicity
  _atom_site_fract_x
  _atom_site_fract_y
  _atom_site_fract_z
  _atom_site_occupancy
  F   F1        1.0  0.55800  0.05830  0.25000  1.0000
  F   F2        1.0  0.94200  0.05830  0.25000  1.0000
  F   F3        1.0  0.55800  0.44200  0.25000  1.0000
  F   F4        1.0  0.94200  0.44200  0.25000  1.0000
  F   F5        1.0  0.05830  0.55800  0.75000  1.0000
  F   F6        1.0  0.44200  0.55800  0.75000  1.0000
  F   F7        1.0  0.05830  0.94200  0.75000  1.0000
  F   F8        1.0  0.44200  0.94200  0.75000  1.0000
  Mg  Mg1       1.0  0.75000  0.57800  0.23500  1.0000
  Mg  Mg2       1.0  0.75000  0.92200  0.23500  1.0000
  Mg  Mg3       1.0  0.07770  0.25000  0.26500  1.0000
  Mg  Mg4       1.0  0.42200  0.25000  0.26500  1.0000
  Mg  Mg5       1.0  0.57800  0.75000  0.73500  1.0000
  Mg  Mg6       1.0  0.92200  0.75000  0.73500  1.0000
  Mg  Mg7       1.0  0.25000  0.07770  0.76500  1.0000
  Mg  Mg8       1.0  0.25000  0.42200  0.76500  1.0000
  O   O1        1.0  0.25000  0.25000  0.01460  1.0000
  O   O2        1.0  0.75000  0.75000  0.48500  1.0000
  O   O3        1.0  0.25000  0.25000  0.51500  1.0000
  O   O4        1.0  0.75000  0.75000  0.98500  1.0000
