data_image0
_chemical_formula_structural       F4Hg4O2
_chemical_formula_sum              "F4 Hg4 O2"
_cell_length_a       6.62273
_cell_length_b       6.62273
_cell_length_c       7.11458
_cell_angle_alpha    117.738
_cell_angle_beta     117.738
_cell_angle_gamma    90

_space_group_name_H-M_alt    "P 1"
_space_group_IT_number       1

loop_
  _space_group_symop_operation_xyz
  'x, y, z'

loop_
  _atom_site_type_symbol
  _atom_site_label
  _atom_site_symmetry_multiplicity
  _atom_site_fract_x
  _atom_site_fract_y
  _atom_site_fract_z
  _atom_site_occupancy
  F   F1        1.0  0.59800  0.84800  0.19600  1.0000
  F   F2        1.0  0.15200  0.40200  0.30400  1.0000
  F   F3        1.0  0.84800  0.59800  0.69600  1.0000
  F   F4        1.0  0.40200  0.15200  0.80400  1.0000
  Hg  Hg1       1.0  0.00000  0.00000  0.00000  1.0000
  Hg  Hg2       1.0  0.00000  0.50000  0.00000  1.0000
  Hg  Hg3       1.0  0.00000  0.00000  0.50000  1.0000
  Hg  Hg4       1.0  0.50000  0.00000  0.50000  1.0000
  O   O1        1.0  0.12500  0.87500  0.25000  1.0000
  O   O2        1.0  0.87500  0.12500  0.75000  1.0000
