data_image0
_chemical_formula_structural       B2CRh2Tb
_chemical_formula_sum              "B2 C1 Rh2 Tb1"
_cell_length_a       3.8121
_cell_length_b       3.8121
_cell_length_c       5.81078
_cell_angle_alpha    109.149
_cell_angle_beta     109.149
_cell_angle_gamma    90

_space_group_name_H-M_alt    "P 1"
_space_group_IT_number       1

loop_
  _space_group_symop_operation_xyz
  'x, y, z'

loop_
  _atom_site_type_symbol
  _atom_site_label
  _atom_site_symmetry_multiplicity
  _atom_site_fract_x
  _atom_site_fract_y
  _atom_site_fract_z
  _atom_site_occupancy
  B   B1        1.0  0.64500  0.64500  0.29000  1.0000
  B   B2        1.0  0.35500  0.35500  0.71000  1.0000
  C   C1        1.0  0.50000  0.50000  0.00000  1.0000
  Rh  Rh1       1.0  0.75000  0.25000  0.50000  1.0000
  Rh  Rh2       1.0  0.25000  0.75000  0.50000  1.0000
  Tb  Tb1       1.0  0.00000  0.00000  0.00000  1.0000
