data_image0
_chemical_formula_structural       B2LuRu3
_chemical_formula_sum              "B2 Lu1 Ru3"
_cell_length_a       5.47849
_cell_length_b       5.47849
_cell_length_c       3.02113
_cell_angle_alpha    90
_cell_angle_beta     90
_cell_angle_gamma    120

_space_group_name_H-M_alt    "P 1"
_space_group_IT_number       1

loop_
  _space_group_symop_operation_xyz
  'x, y, z'

loop_
  _atom_site_type_symbol
  _atom_site_label
  _atom_site_symmetry_multiplicity
  _atom_site_fract_x
  _atom_site_fract_y
  _atom_site_fract_z
  _atom_site_occupancy
  B   B1        1.0  0.66700  0.33300  0.00000  1.0000
  B   B2        1.0  0.33300  0.66700  0.00000  1.0000
  Lu  Lu1       1.0  0.00000  0.00000  0.00000  1.0000
  Ru  Ru1       1.0  0.50000  0.00001  0.50000  1.0000
  Ru  Ru2       1.0  0.50000  0.50000  0.50000  1.0000
  Ru  Ru3       1.0  0.00001  0.50000  0.50000  1.0000
