data_image0
_chemical_formula_structural       Al2B4Ir10Mg4
_chemical_formula_sum              "Al2 B4 Ir10 Mg4"
_cell_length_a       9.45996
_cell_length_b       9.45996
_cell_length_c       2.93452
_cell_angle_alpha    90
_cell_angle_beta     90
_cell_angle_gamma    90

_space_group_name_H-M_alt    "P 1"
_space_group_IT_number       1

loop_
  _space_group_symop_operation_xyz
  'x, y, z'

loop_
  _atom_site_type_symbol
  _atom_site_label
  _atom_site_symmetry_multiplicity
  _atom_site_fract_x
  _atom_site_fract_y
  _atom_site_fract_z
  _atom_site_occupancy
  Al  Al1       1.0  0.00000  0.00000  0.00000  1.0000
  Al  Al2       1.0  0.50000  0.50000  0.00000  1.0000
  B   B1        1.0  0.37400  0.12600  0.00000  1.0000
  B   B2        1.0  0.87400  0.37400  0.00000  1.0000
  B   B3        1.0  0.12600  0.62600  0.00000  1.0000
  B   B4        1.0  0.62600  0.87400  0.00000  1.0000
  Ir  Ir1       1.0  0.50000  0.00000  0.50000  1.0000
  Ir  Ir2       1.0  0.21400  0.07120  0.50000  1.0000
  Ir  Ir3       1.0  0.92900  0.21400  0.50000  1.0000
  Ir  Ir4       1.0  0.42900  0.28600  0.50000  1.0000
  Ir  Ir5       1.0  0.71400  0.42900  0.50000  1.0000
  Ir  Ir6       1.0  0.00000  0.50000  0.50000  1.0000
  Ir  Ir7       1.0  0.28600  0.57100  0.50000  1.0000
  Ir  Ir8       1.0  0.57100  0.71400  0.50000  1.0000
  Ir  Ir9       1.0  0.07120  0.78600  0.50000  1.0000
  Ir  Ir10      1.0  0.78600  0.92900  0.50000  1.0000
  Mg  Mg1       1.0  0.67600  0.17600  0.00000  1.0000
  Mg  Mg2       1.0  0.17600  0.32400  0.00000  1.0000
  Mg  Mg3       1.0  0.82400  0.67600  0.00000  1.0000
  Mg  Mg4       1.0  0.32400  0.82400  0.00000  1.0000
