data_image0
_chemical_formula_structural       C2H9KMgO10
_chemical_formula_sum              "C2 H9 K1 Mg1 O10"
_cell_length_a       6.60376
_cell_length_b       7.05399
_cell_length_c       5.23769
_cell_angle_alpha    106.306
_cell_angle_beta     107.306
_cell_angle_gamma    60.8837

_space_group_name_H-M_alt    "P 1"
_space_group_IT_number       1

loop_
  _space_group_symop_operation_xyz
  'x, y, z'

loop_
  _atom_site_type_symbol
  _atom_site_label
  _atom_site_symmetry_multiplicity
  _atom_site_fract_x
  _atom_site_fract_y
  _atom_site_fract_z
  _atom_site_occupancy
  C   C1        1.0  0.49200  0.20500  0.37400  1.0000
  C   C2        1.0  0.50800  0.79500  0.62600  1.0000
  H   H1        1.0  0.75600  0.57600  0.99000  1.0000
  H   H2        1.0  0.50000  0.00000  0.00000  1.0000
  H   H3        1.0  0.24400  0.42400  0.01040  1.0000
  H   H4        1.0  0.60400  0.59600  0.19200  1.0000
  H   H5        1.0  0.87100  0.87700  0.36000  1.0000
  H   H6        1.0  0.16000  0.76100  0.42000  1.0000
  H   H7        1.0  0.84000  0.23900  0.58000  1.0000
  H   H8        1.0  0.12900  0.12300  0.64000  1.0000
  H   H9        1.0  0.39600  0.40400  0.80800  1.0000
  K   K1        1.0  0.00000  0.00000  0.00000  1.0000
  Mg  Mg1       1.0  0.00000  0.50000  0.50000  1.0000
  O   O1        1.0  0.76100  0.50700  0.13300  1.0000
  O   O2        1.0  0.62300  0.05110  0.20000  1.0000
  O   O3        1.0  0.26800  0.30200  0.28800  1.0000
  O   O4        1.0  0.40300  0.75200  0.38500  1.0000
  O   O5        1.0  0.01660  0.77100  0.46300  1.0000
  O   O6        1.0  0.98300  0.22900  0.53700  1.0000
  O   O7        1.0  0.59700  0.24800  0.61500  1.0000
  O   O8        1.0  0.73200  0.69800  0.71200  1.0000
  O   O9        1.0  0.37700  0.94900  0.80000  1.0000
  O   O10       1.0  0.23900  0.49300  0.86700  1.0000
