data_image0
_chemical_formula_structural       Ca4Mg2O14Si4
_chemical_formula_sum              "Ca4 Mg2 O14 Si4"
_cell_length_a       7.78173
_cell_length_b       7.78173
_cell_length_c       4.97188
_cell_angle_alpha    90
_cell_angle_beta     90
_cell_angle_gamma    90

_space_group_name_H-M_alt    "P 1"
_space_group_IT_number       1

loop_
  _space_group_symop_operation_xyz
  'x, y, z'

loop_
  _atom_site_type_symbol
  _atom_site_label
  _atom_site_symmetry_multiplicity
  _atom_site_fract_x
  _atom_site_fract_y
  _atom_site_fract_z
  _atom_site_occupancy
  Ca  Ca1       1.0  0.83300  0.33300  0.49600  1.0000
  Ca  Ca2       1.0  0.16700  0.66700  0.49600  1.0000
  Ca  Ca3       1.0  0.33300  0.16700  0.50400  1.0000
  Ca  Ca4       1.0  0.66700  0.83300  0.50400  1.0000
  Mg  Mg1       1.0  0.00000  0.00000  0.00000  1.0000
  Mg  Mg2       1.0  0.50000  0.50000  0.00000  1.0000
  O   O1        1.0  0.50000  0.00000  0.18700  1.0000
  O   O2        1.0  0.81700  0.08200  0.22300  1.0000
  O   O3        1.0  0.58200  0.31700  0.22300  1.0000
  O   O4        1.0  0.41800  0.68300  0.22300  1.0000
  O   O5        1.0  0.18300  0.91800  0.22300  1.0000
  O   O6        1.0  0.14200  0.35800  0.25500  1.0000
  O   O7        1.0  0.85800  0.64200  0.25500  1.0000
  O   O8        1.0  0.64200  0.14200  0.74500  1.0000
  O   O9        1.0  0.35800  0.85800  0.74500  1.0000
  O   O10       1.0  0.08200  0.18300  0.77700  1.0000
  O   O11       1.0  0.31700  0.41800  0.77700  1.0000
  O   O12       1.0  0.68300  0.58200  0.77700  1.0000
  O   O13       1.0  0.91800  0.81700  0.77700  1.0000
  O   O14       1.0  0.00000  0.50000  0.81300  1.0000
  Si  Si1       1.0  0.64200  0.14200  0.06890  1.0000
  Si  Si2       1.0  0.35800  0.85800  0.06890  1.0000
  Si  Si3       1.0  0.14200  0.35800  0.93100  1.0000
  Si  Si4       1.0  0.85800  0.64200  0.93100  1.0000
