data_image0
_chemical_formula_structural       As2Mn2V2
_chemical_formula_sum              "As2 Mn2 V2"
_cell_length_a       3.65664
_cell_length_b       3.65664
_cell_length_c       6.45439
_cell_angle_alpha    90
_cell_angle_beta     90
_cell_angle_gamma    90

_space_group_name_H-M_alt    "P 1"
_space_group_IT_number       1

loop_
  _space_group_symop_operation_xyz
  'x, y, z'

loop_
  _atom_site_type_symbol
  _atom_site_label
  _atom_site_symmetry_multiplicity
  _atom_site_fract_x
  _atom_site_fract_y
  _atom_site_fract_z
  _atom_site_occupancy
  As  As1       1.0  0.50000  0.00000  0.27900  1.0000
  As  As2       1.0  0.00000  0.50000  0.72100  1.0000
  Mn  Mn1       1.0  0.00000  0.50000  0.33700  1.0000
  Mn  Mn2       1.0  0.50000  0.00000  0.66300  1.0000
  V   V1        1.0  0.00000  0.00000  0.00000  1.0000
  V   V2        1.0  0.50000  0.50000  0.00000  1.0000
