data_image0
_chemical_formula_structural       Cu2In2N2O2
_chemical_formula_sum              "Cu2 In2 N2 O2"
_cell_length_a       3.25631
_cell_length_b       5.60212
_cell_length_c       5.88325
_cell_angle_alpha    90
_cell_angle_beta     90
_cell_angle_gamma    90

_space_group_name_H-M_alt    "P 1"
_space_group_IT_number       1

loop_
  _space_group_symop_operation_xyz
  'x, y, z'

loop_
  _atom_site_type_symbol
  _atom_site_label
  _atom_site_symmetry_multiplicity
  _atom_site_fract_x
  _atom_site_fract_y
  _atom_site_fract_z
  _atom_site_occupancy
  Cu  Cu1       1.0  0.50000  0.98900  0.17800  1.0000
  Cu  Cu2       1.0  0.50000  0.48900  0.82200  1.0000
  In  In1       1.0  0.00000  0.50900  0.33000  1.0000
  In  In2       1.0  0.00000  0.00899  0.67000  1.0000
  N   N1        1.0  0.00000  0.89100  0.32200  1.0000
  N   N2        1.0  0.00000  0.39100  0.67800  1.0000
  O   O1        1.0  0.50000  0.36400  0.15100  1.0000
  O   O2        1.0  0.50000  0.86400  0.84900  1.0000
