data_image0
_chemical_formula_structural       Co2I2O2
_chemical_formula_sum              "Co2 I2 O2"
_cell_length_a       3.58292
_cell_length_b       3.58292
_cell_length_c       9.29661
_cell_angle_alpha    90
_cell_angle_beta     90
_cell_angle_gamma    90

_space_group_name_H-M_alt    "P 1"
_space_group_IT_number       1

loop_
  _space_group_symop_operation_xyz
  'x, y, z'

loop_
  _atom_site_type_symbol
  _atom_site_label
  _atom_site_symmetry_multiplicity
  _atom_site_fract_x
  _atom_site_fract_y
  _atom_site_fract_z
  _atom_site_occupancy
  Co  Co1       1.0  0.25000  0.25000  0.08920  1.0000
  Co  Co2       1.0  0.75000  0.75000  0.91100  1.0000
  I   I1        1.0  0.75000  0.75000  0.32800  1.0000
  I   I2        1.0  0.25000  0.25000  0.67200  1.0000
  O   O1        1.0  0.75000  0.25000  0.00000  1.0000
  O   O2        1.0  0.25000  0.75000  0.00000  1.0000
