data_image0
_chemical_formula_structural       As2Co2O2Os2
_chemical_formula_sum              "As2 Co2 O2 Os2"
_cell_length_a       3.67703
_cell_length_b       3.67703
_cell_length_c       6.82748
_cell_angle_alpha    90
_cell_angle_beta     90
_cell_angle_gamma    90

_space_group_name_H-M_alt    "P 1"
_space_group_IT_number       1

loop_
  _space_group_symop_operation_xyz
  'x, y, z'

loop_
  _atom_site_type_symbol
  _atom_site_label
  _atom_site_symmetry_multiplicity
  _atom_site_fract_x
  _atom_site_fract_y
  _atom_site_fract_z
  _atom_site_occupancy
  As  As1       1.0  0.75000  0.75000  0.29700  1.0000
  As  As2       1.0  0.25000  0.25000  0.70300  1.0000
  Co  Co1       1.0  0.75000  0.25000  0.50000  1.0000
  Co  Co2       1.0  0.25000  0.75000  0.50000  1.0000
  O   O1        1.0  0.75000  0.25000  0.00000  1.0000
  O   O2        1.0  0.25000  0.75000  0.00000  1.0000
  Os  Os1       1.0  0.25000  0.25000  0.19100  1.0000
  Os  Os2       1.0  0.75000  0.75000  0.80900  1.0000
