data_image0
_chemical_formula_structural       As2Be2O2Rb2
_chemical_formula_sum              "As2 Be2 O2 Rb2"
_cell_length_a       3.44266
_cell_length_b       3.44266
_cell_length_c       12.5647
_cell_angle_alpha    90
_cell_angle_beta     90
_cell_angle_gamma    90

_space_group_name_H-M_alt    "P 1"
_space_group_IT_number       1

loop_
  _space_group_symop_operation_xyz
  'x, y, z'

loop_
  _atom_site_type_symbol
  _atom_site_label
  _atom_site_symmetry_multiplicity
  _atom_site_fract_x
  _atom_site_fract_y
  _atom_site_fract_z
  _atom_site_occupancy
  As  As1       1.0  0.75000  0.75000  0.37900  1.0000
  As  As2       1.0  0.25000  0.25000  0.62100  1.0000
  Be  Be1       1.0  0.75000  0.25000  0.50000  1.0000
  Be  Be2       1.0  0.25000  0.75000  0.50000  1.0000
  O   O1        1.0  0.75000  0.25000  0.00000  1.0000
  O   O2        1.0  0.25000  0.75000  0.00000  1.0000
  Rb  Rb1       1.0  0.25000  0.25000  0.16400  1.0000
  Rb  Rb2       1.0  0.75000  0.75000  0.83600  1.0000
