data_image0
_chemical_formula_structural       Ba2Mg2Sn2
_chemical_formula_sum              "Ba2 Mg2 Sn2"
_cell_length_a       4.94561
_cell_length_b       4.94561
_cell_length_c       8.46659
_cell_angle_alpha    90
_cell_angle_beta     90
_cell_angle_gamma    90

_space_group_name_H-M_alt    "P 1"
_space_group_IT_number       1

loop_
  _space_group_symop_operation_xyz
  'x, y, z'

loop_
  _atom_site_type_symbol
  _atom_site_label
  _atom_site_symmetry_multiplicity
  _atom_site_fract_x
  _atom_site_fract_y
  _atom_site_fract_z
  _atom_site_occupancy
  Ba  Ba1       1.0  0.75000  0.25000  0.00000  1.0000
  Ba  Ba2       1.0  0.25000  0.75000  0.00000  1.0000
  Mg  Mg1       1.0  0.25000  0.25000  0.35900  1.0000
  Mg  Mg2       1.0  0.75000  0.75000  0.64100  1.0000
  Sn  Sn1       1.0  0.75000  0.75000  0.30200  1.0000
  Sn  Sn2       1.0  0.25000  0.25000  0.69800  1.0000
