data_image0
_chemical_formula_structural       Cr2Sb4
_chemical_formula_sum              "Cr2 Sb4"
_cell_length_a       5.43438
_cell_length_b       5.43438
_cell_length_c       5.43438
_cell_angle_alpha    116.014
_cell_angle_beta     106.302
_cell_angle_gamma    106.302

_space_group_name_H-M_alt    "P 1"
_space_group_IT_number       1

loop_
  _space_group_symop_operation_xyz
  'x, y, z'

loop_
  _atom_site_type_symbol
  _atom_site_label
  _atom_site_symmetry_multiplicity
  _atom_site_fract_x
  _atom_site_fract_y
  _atom_site_fract_z
  _atom_site_occupancy
  Cr  Cr1       1.0  0.00000  0.25000  0.25000  1.0000
  Cr  Cr2       1.0  0.00000  0.75000  0.75000  1.0000
  Sb  Sb1       1.0  0.50000  0.34100  0.15900  1.0000
  Sb  Sb2       1.0  0.18200  0.84100  0.34100  1.0000
  Sb  Sb3       1.0  0.81800  0.15900  0.65900  1.0000
  Sb  Sb4       1.0  0.50000  0.65900  0.84100  1.0000
