data_image0
_chemical_formula_structural       Cu18Mg4Sm2
_chemical_formula_sum              "Cu18 Mg4 Sm2"
_cell_length_a       5.0138
_cell_length_b       5.01376
_cell_length_c       16.1175
_cell_angle_alpha    90
_cell_angle_beta     90
_cell_angle_gamma    120

_space_group_name_H-M_alt    "P 1"
_space_group_IT_number       1

loop_
  _space_group_symop_operation_xyz
  'x, y, z'

loop_
  _atom_site_type_symbol
  _atom_site_label
  _atom_site_symmetry_multiplicity
  _atom_site_fract_x
  _atom_site_fract_y
  _atom_site_fract_z
  _atom_site_occupancy
  Cu  Cu1       1.0  0.00000  0.00000  0.00000  1.0000
  Cu  Cu2       1.0  0.16800  0.33600  0.12300  1.0000
  Cu  Cu3       1.0  0.16800  0.83200  0.12300  1.0000
  Cu  Cu4       1.0  0.66400  0.83200  0.12300  1.0000
  Cu  Cu5       1.0  0.00001  0.00001  0.25000  1.0000
  Cu  Cu6       1.0  0.33300  0.66700  0.25000  1.0000
  Cu  Cu7       1.0  0.16800  0.83200  0.37700  1.0000
  Cu  Cu8       1.0  0.66400  0.83200  0.37700  1.0000
  Cu  Cu9       1.0  0.16800  0.33600  0.37700  1.0000
  Cu  Cu10      1.0  0.00000  0.00000  0.50000  1.0000
  Cu  Cu11      1.0  0.83200  0.66400  0.62300  1.0000
  Cu  Cu12      1.0  0.33600  0.16800  0.62300  1.0000
  Cu  Cu13      1.0  0.83200  0.16800  0.62300  1.0000
  Cu  Cu14      1.0  0.00000  0.00000  0.75000  1.0000
  Cu  Cu15      1.0  0.66700  0.33300  0.75000  1.0000
  Cu  Cu16      1.0  0.33600  0.16800  0.87700  1.0000
  Cu  Cu17      1.0  0.83200  0.16800  0.87700  1.0000
  Cu  Cu18      1.0  0.83200  0.66400  0.87700  1.0000
  Mg  Mg1       1.0  0.66700  0.33300  0.03210  1.0000
  Mg  Mg2       1.0  0.66700  0.33300  0.46800  1.0000
  Mg  Mg3       1.0  0.33300  0.66700  0.53200  1.0000
  Mg  Mg4       1.0  0.33300  0.66700  0.96800  1.0000
  Sm  Sm1       1.0  0.66700  0.33300  0.25000  1.0000
  Sm  Sm2       1.0  0.33300  0.66700  0.75000  1.0000
