data_image0
_chemical_formula_structural       Bi8Ni4O16
_chemical_formula_sum              "Bi8 Ni4 O16"
_cell_length_a       8.38095
_cell_length_b       8.38095
_cell_length_c       5.9834
_cell_angle_alpha    90
_cell_angle_beta     90
_cell_angle_gamma    90

_space_group_name_H-M_alt    "P 1"
_space_group_IT_number       1

loop_
  _space_group_symop_operation_xyz
  'x, y, z'

loop_
  _atom_site_type_symbol
  _atom_site_label
  _atom_site_symmetry_multiplicity
  _atom_site_fract_x
  _atom_site_fract_y
  _atom_site_fract_z
  _atom_site_occupancy
  Bi  Bi1       1.0  0.91800  0.08250  0.25000  1.0000
  Bi  Bi2       1.0  0.58200  0.41800  0.25000  1.0000
  Bi  Bi3       1.0  0.08250  0.58200  0.25000  1.0000
  Bi  Bi4       1.0  0.41800  0.91800  0.25000  1.0000
  Bi  Bi5       1.0  0.58200  0.08250  0.75000  1.0000
  Bi  Bi6       1.0  0.91800  0.41800  0.75000  1.0000
  Bi  Bi7       1.0  0.41800  0.58200  0.75000  1.0000
  Bi  Bi8       1.0  0.08250  0.91800  0.75000  1.0000
  Ni  Ni1       1.0  0.25000  0.25000  0.07430  1.0000
  Ni  Ni2       1.0  0.75000  0.75000  0.42600  1.0000
  Ni  Ni3       1.0  0.25000  0.25000  0.57400  1.0000
  Ni  Ni4       1.0  0.75000  0.75000  0.92600  1.0000
  O   O1        1.0  0.15000  0.04180  0.09000  1.0000
  O   O2        1.0  0.45800  0.15000  0.09000  1.0000
  O   O3        1.0  0.04180  0.35000  0.09000  1.0000
  O   O4        1.0  0.35000  0.45800  0.09000  1.0000
  O   O5        1.0  0.85000  0.54200  0.41000  1.0000
  O   O6        1.0  0.54200  0.65000  0.41000  1.0000
  O   O7        1.0  0.95800  0.85000  0.41000  1.0000
  O   O8        1.0  0.65000  0.95800  0.41000  1.0000
  O   O9        1.0  0.35000  0.04180  0.59000  1.0000
  O   O10       1.0  0.04180  0.15000  0.59000  1.0000
  O   O11       1.0  0.45800  0.35000  0.59000  1.0000
  O   O12       1.0  0.15000  0.45800  0.59000  1.0000
  O   O13       1.0  0.65000  0.54200  0.91000  1.0000
  O   O14       1.0  0.95800  0.65000  0.91000  1.0000
  O   O15       1.0  0.54200  0.85000  0.91000  1.0000
  O   O16       1.0  0.85000  0.95800  0.91000  1.0000
