data_image0
_chemical_formula_structural       Ni2O4Sn2
_chemical_formula_sum              "Ni2 O4 Sn2"
_cell_length_a       3.1902
_cell_length_b       3.89548
_cell_length_c       8.16124
_cell_angle_alpha    90
_cell_angle_beta     78.7291
_cell_angle_gamma    90

_space_group_name_H-M_alt    "P 1"
_space_group_IT_number       1

loop_
  _space_group_symop_operation_xyz
  'x, y, z'

loop_
  _atom_site_type_symbol
  _atom_site_label
  _atom_site_symmetry_multiplicity
  _atom_site_fract_x
  _atom_site_fract_y
  _atom_site_fract_z
  _atom_site_occupancy
  Ni  Ni1       1.0  0.94000  0.25000  0.12000  1.0000
  Ni  Ni2       1.0  0.05990  0.75000  0.88000  1.0000
  O   O1        1.0  0.93400  0.75000  0.13200  1.0000
  O   O2        1.0  0.81300  0.25000  0.37400  1.0000
  O   O3        1.0  0.18700  0.75000  0.62600  1.0000
  O   O4        1.0  0.06610  0.25000  0.86800  1.0000
  Sn  Sn1       1.0  0.33300  0.75000  0.33300  1.0000
  Sn  Sn2       1.0  0.66700  0.25000  0.66700  1.0000
