data_image0
_chemical_formula_structural       Ca2Fe2O2S2
_chemical_formula_sum              "Ca2 Fe2 O2 S2"
_cell_length_a       3.67345
_cell_length_b       3.61933
_cell_length_c       11.6626
_cell_angle_alpha    90
_cell_angle_beta     90
_cell_angle_gamma    120.496

_space_group_name_H-M_alt    "P 1"
_space_group_IT_number       1

loop_
  _space_group_symop_operation_xyz
  'x, y, z'

loop_
  _atom_site_type_symbol
  _atom_site_label
  _atom_site_symmetry_multiplicity
  _atom_site_fract_x
  _atom_site_fract_y
  _atom_site_fract_z
  _atom_site_occupancy
  Ca  Ca1       1.0  0.99900  0.99800  0.49400  1.0000
  Ca  Ca2       1.0  0.00121  0.00241  0.99400  1.0000
  Fe  Fe1       1.0  0.32700  0.65500  0.26100  1.0000
  Fe  Fe2       1.0  0.67300  0.34500  0.76100  1.0000
  O   O1        1.0  0.00773  0.01550  0.31000  1.0000
  O   O2        1.0  0.99200  0.98500  0.81000  1.0000
  S   S1        1.0  0.66500  0.33100  0.12300  1.0000
  S   S2        1.0  0.33500  0.66900  0.62300  1.0000
