data_image0
_chemical_formula_structural       Cu4O2Te2
_chemical_formula_sum              "Cu4 O2 Te2"
_cell_length_a       3.12658
_cell_length_b       5.54061
_cell_length_c       7.00148
_cell_angle_alpha    90
_cell_angle_beta     77.0982
_cell_angle_gamma    90

_space_group_name_H-M_alt    "P 1"
_space_group_IT_number       1

loop_
  _space_group_symop_operation_xyz
  'x, y, z'

loop_
  _atom_site_type_symbol
  _atom_site_label
  _atom_site_symmetry_multiplicity
  _atom_site_fract_x
  _atom_site_fract_y
  _atom_site_fract_z
  _atom_site_occupancy
  Cu  Cu1       1.0  0.47800  0.75000  0.04450  1.0000
  Cu  Cu2       1.0  0.87700  0.25000  0.24600  1.0000
  Cu  Cu3       1.0  0.12300  0.75000  0.75400  1.0000
  Cu  Cu4       1.0  0.52200  0.25000  0.95500  1.0000
  O   O1        1.0  0.00000  0.00000  0.00000  1.0000
  O   O2        1.0  0.00000  0.50000  0.00000  1.0000
  Te  Te1       1.0  0.77600  0.75000  0.44800  1.0000
  Te  Te2       1.0  0.22400  0.25000  0.55200  1.0000
