data_image0
_chemical_formula_structural       Cd2Cu2O2Te2
_chemical_formula_sum              "Cd2 Cu2 O2 Te2"
_cell_length_a       3.35982
_cell_length_b       5.99063
_cell_length_c       7.14876
_cell_angle_alpha    90
_cell_angle_beta     76.4088
_cell_angle_gamma    90

_space_group_name_H-M_alt    "P 1"
_space_group_IT_number       1

loop_
  _space_group_symop_operation_xyz
  'x, y, z'

loop_
  _atom_site_type_symbol
  _atom_site_label
  _atom_site_symmetry_multiplicity
  _atom_site_fract_x
  _atom_site_fract_y
  _atom_site_fract_z
  _atom_site_occupancy
  Cd  Cd1       1.0  0.43900  0.75000  0.12200  1.0000
  Cd  Cd2       1.0  0.56100  0.25000  0.87800  1.0000
  Cu  Cu1       1.0  0.89200  0.25000  0.21500  1.0000
  Cu  Cu2       1.0  0.10800  0.75000  0.78500  1.0000
  O   O1        1.0  0.00000  0.00000  0.00000  1.0000
  O   O2        1.0  0.00000  0.50000  0.00000  1.0000
  Te  Te1       1.0  0.25200  0.25000  0.49700  1.0000
  Te  Te2       1.0  0.74800  0.75000  0.50300  1.0000
