data_image0
_chemical_formula_structural       Co8O4Te4
_chemical_formula_sum              "Co8 O4 Te4"
_cell_length_a       6.00528
_cell_length_b       3.5383
_cell_length_c       12.7256
_cell_angle_alpha    90
_cell_angle_beta     90
_cell_angle_gamma    90

_space_group_name_H-M_alt    "P 1"
_space_group_IT_number       1

loop_
  _space_group_symop_operation_xyz
  'x, y, z'

loop_
  _atom_site_type_symbol
  _atom_site_label
  _atom_site_symmetry_multiplicity
  _atom_site_fract_x
  _atom_site_fract_y
  _atom_site_fract_z
  _atom_site_occupancy
  Co  Co1       1.0  0.23700  0.75000  0.08790  1.0000
  Co  Co2       1.0  0.58900  0.25000  0.21100  1.0000
  Co  Co3       1.0  0.08920  0.25000  0.28900  1.0000
  Co  Co4       1.0  0.73700  0.75000  0.41200  1.0000
  Co  Co5       1.0  0.26300  0.25000  0.58800  1.0000
  Co  Co6       1.0  0.91100  0.75000  0.71100  1.0000
  Co  Co7       1.0  0.41100  0.75000  0.78900  1.0000
  Co  Co8       1.0  0.76300  0.25000  0.91200  1.0000
  O   O1        1.0  0.27900  0.25000  0.16700  1.0000
  O   O2        1.0  0.77900  0.25000  0.33300  1.0000
  O   O3        1.0  0.22100  0.75000  0.66700  1.0000
  O   O4        1.0  0.72100  0.75000  0.83300  1.0000
  Te  Te1       1.0  0.77800  0.75000  0.08380  1.0000
  Te  Te2       1.0  0.27800  0.75000  0.41600  1.0000
  Te  Te3       1.0  0.72200  0.25000  0.58400  1.0000
  Te  Te4       1.0  0.22200  0.25000  0.91600  1.0000
