data_image0
_chemical_formula_structural       Ag12Hg12O48Y8
_chemical_formula_sum              "Ag12 Hg12 O48 Y8"
_cell_length_a       11.3471
_cell_length_b       11.3471
_cell_length_c       11.3471
_cell_angle_alpha    109.471
_cell_angle_beta     109.471
_cell_angle_gamma    109.471

_space_group_name_H-M_alt    "P 1"
_space_group_IT_number       1

loop_
  _space_group_symop_operation_xyz
  'x, y, z'

loop_
  _atom_site_type_symbol
  _atom_site_label
  _atom_site_symmetry_multiplicity
  _atom_site_fract_x
  _atom_site_fract_y
  _atom_site_fract_z
  _atom_site_occupancy
  Ag  Ag1       1.0  0.37500  0.25000  0.12500  1.0000
  Ag  Ag2       1.0  0.25000  0.87500  0.12500  1.0000
  Ag  Ag3       1.0  0.37500  0.62500  0.25000  1.0000
  Ag  Ag4       1.0  0.87500  0.12500  0.25000  1.0000
  Ag  Ag5       1.0  0.75000  0.62500  0.37500  1.0000
  Ag  Ag6       1.0  0.12500  0.75000  0.37500  1.0000
  Ag  Ag7       1.0  0.87500  0.25000  0.62500  1.0000
  Ag  Ag8       1.0  0.25000  0.37500  0.62500  1.0000
  Ag  Ag9       1.0  0.62500  0.37500  0.75000  1.0000
  Ag  Ag10      1.0  0.12500  0.87500  0.75000  1.0000
  Ag  Ag11      1.0  0.75000  0.12500  0.87500  1.0000
  Ag  Ag12      1.0  0.62500  0.75000  0.87500  1.0000
  Hg  Hg1       1.0  0.87500  0.75000  0.12500  1.0000
  Hg  Hg2       1.0  0.75000  0.37500  0.12500  1.0000
  Hg  Hg3       1.0  0.12500  0.37500  0.25000  1.0000
  Hg  Hg4       1.0  0.62500  0.87500  0.25000  1.0000
  Hg  Hg5       1.0  0.25000  0.12500  0.37500  1.0000
  Hg  Hg6       1.0  0.62500  0.25000  0.37500  1.0000
  Hg  Hg7       1.0  0.37500  0.75000  0.62500  1.0000
  Hg  Hg8       1.0  0.75000  0.87500  0.62500  1.0000
  Hg  Hg9       1.0  0.37500  0.12500  0.75000  1.0000
  Hg  Hg10      1.0  0.87500  0.62500  0.75000  1.0000
  Hg  Hg11      1.0  0.25000  0.62500  0.87500  1.0000
  Hg  Hg12      1.0  0.12500  0.25000  0.87500  1.0000
  O   O1        1.0  0.93900  0.17200  0.05190  1.0000
  O   O2        1.0  0.61300  0.88000  0.05190  1.0000
  O   O3        1.0  0.32800  0.44800  0.06100  1.0000
  O   O4        1.0  0.23300  0.61300  0.06100  1.0000
  O   O5        1.0  0.55200  0.38000  0.11300  1.0000
  O   O6        1.0  0.06100  0.73300  0.11300  1.0000
  O   O7        1.0  0.73300  0.17200  0.12000  1.0000
  O   O8        1.0  0.88700  0.94800  0.12000  1.0000
  O   O9        1.0  0.43900  0.05190  0.17200  1.0000
  O   O10       1.0  0.23300  0.12000  0.17200  1.0000
  O   O11       1.0  0.11300  0.56100  0.23300  1.0000
  O   O12       1.0  0.62000  0.67200  0.23300  1.0000
  O   O13       1.0  0.32800  0.38000  0.26700  1.0000
  O   O14       1.0  0.43900  0.88700  0.26700  1.0000
  O   O15       1.0  0.94800  0.56100  0.32800  1.0000
  O   O16       1.0  0.88000  0.76700  0.32800  1.0000
  O   O17       1.0  0.05190  0.11300  0.38000  1.0000
  O   O18       1.0  0.82800  0.26700  0.38000  1.0000
  O   O19       1.0  0.62000  0.44800  0.38700  1.0000
  O   O20       1.0  0.26700  0.93900  0.38700  1.0000
  O   O21       1.0  0.55200  0.67200  0.43900  1.0000
  O   O22       1.0  0.38700  0.76700  0.43900  1.0000
  O   O23       1.0  0.82800  0.06100  0.44800  1.0000
  O   O24       1.0  0.12000  0.38700  0.44800  1.0000
  O   O25       1.0  0.88000  0.61300  0.55200  1.0000
  O   O26       1.0  0.17200  0.93900  0.55200  1.0000
  O   O27       1.0  0.44800  0.32800  0.56100  1.0000
  O   O28       1.0  0.61300  0.23300  0.56100  1.0000
  O   O29       1.0  0.73300  0.06100  0.61300  1.0000
  O   O30       1.0  0.38000  0.55200  0.61300  1.0000
  O   O31       1.0  0.94800  0.88700  0.62000  1.0000
  O   O32       1.0  0.17200  0.73300  0.62000  1.0000
  O   O33       1.0  0.12000  0.23300  0.67200  1.0000
  O   O34       1.0  0.05190  0.43900  0.67200  1.0000
  O   O35       1.0  0.56100  0.11300  0.73300  1.0000
  O   O36       1.0  0.67200  0.62000  0.73300  1.0000
  O   O37       1.0  0.38000  0.32800  0.76700  1.0000
  O   O38       1.0  0.88700  0.43900  0.76700  1.0000
  O   O39       1.0  0.56100  0.94800  0.82800  1.0000
  O   O40       1.0  0.76700  0.88000  0.82800  1.0000
  O   O41       1.0  0.26700  0.82800  0.88000  1.0000
  O   O42       1.0  0.11300  0.05190  0.88000  1.0000
  O   O43       1.0  0.93900  0.26700  0.88700  1.0000
  O   O44       1.0  0.44800  0.62000  0.88700  1.0000
  O   O45       1.0  0.76700  0.38700  0.93900  1.0000
  O   O46       1.0  0.67200  0.55200  0.93900  1.0000
  O   O47       1.0  0.38700  0.12000  0.94800  1.0000
  O   O48       1.0  0.06100  0.82800  0.94800  1.0000
  Y   Y1        1.0  0.00000  0.00000  0.00000  1.0000
  Y   Y2        1.0  0.50000  0.00000  0.00000  1.0000
  Y   Y3        1.0  0.00000  0.50000  0.00000  1.0000
  Y   Y4        1.0  0.50000  0.50000  0.00000  1.0000
  Y   Y5        1.0  0.00000  0.00000  0.50000  1.0000
  Y   Y6        1.0  0.50000  0.50000  0.50000  1.0000
  Y   Y7        1.0  0.50000  0.00000  0.50000  1.0000
  Y   Y8        1.0  1.00000  0.50000  0.50000  1.0000
