data_image0
_chemical_formula_structural       Cl2Ho2O2
_chemical_formula_sum              "Cl2 Ho2 O2"
_cell_length_a       3.87596
_cell_length_b       3.87596
_cell_length_c       6.6152
_cell_angle_alpha    90
_cell_angle_beta     90
_cell_angle_gamma    90

_space_group_name_H-M_alt    "P 1"
_space_group_IT_number       1

loop_
  _space_group_symop_operation_xyz
  'x, y, z'

loop_
  _atom_site_type_symbol
  _atom_site_label
  _atom_site_symmetry_multiplicity
  _atom_site_fract_x
  _atom_site_fract_y
  _atom_site_fract_z
  _atom_site_occupancy
  Cl  Cl1       1.0  0.50000  0.00000  0.37300  1.0000
  Cl  Cl2       1.0  0.00000  0.50000  0.62700  1.0000
  Ho  Ho1       1.0  0.00000  0.50000  0.16800  1.0000
  Ho  Ho2       1.0  0.50000  0.00000  0.83200  1.0000
  O   O1        1.0  0.00000  0.00000  0.00000  1.0000
  O   O2        1.0  0.50000  0.50000  0.00000  1.0000
