data_image0
_chemical_formula_structural       Rh30Si18Sm6
_chemical_formula_sum              "Rh30 Si18 Sm6"
_cell_length_a       15.68
_cell_length_b       15.68
_cell_length_c       3.89899
_cell_angle_alpha    90
_cell_angle_beta     90
_cell_angle_gamma    120

_space_group_name_H-M_alt    "P 1"
_space_group_IT_number       1

loop_
  _space_group_symop_operation_xyz
  'x, y, z'

loop_
  _atom_site_type_symbol
  _atom_site_label
  _atom_site_symmetry_multiplicity
  _atom_site_fract_x
  _atom_site_fract_y
  _atom_site_fract_z
  _atom_site_occupancy
  Rh  Rh1       1.0  0.53700  0.07510  0.25000  1.0000
  Rh  Rh2       1.0  0.11200  0.14000  0.25000  1.0000
  Rh  Rh3       1.0  0.73800  0.15200  0.25000  1.0000
  Rh  Rh4       1.0  0.41400  0.26200  0.25000  1.0000
  Rh  Rh5       1.0  0.04410  0.27000  0.25000  1.0000
  Rh  Rh6       1.0  0.92500  0.46200  0.25000  1.0000
  Rh  Rh7       1.0  0.53800  0.46300  0.25000  1.0000
  Rh  Rh8       1.0  0.22400  0.57100  0.25000  1.0000
  Rh  Rh9       1.0  0.84800  0.58600  0.25000  1.0000
  Rh  Rh10      1.0  0.42900  0.65200  0.25000  1.0000
  Rh  Rh11      1.0  0.73000  0.77400  0.25000  1.0000
  Rh  Rh12      1.0  0.34800  0.77600  0.25000  1.0000
  Rh  Rh13      1.0  0.02890  0.88800  0.25000  1.0000
  Rh  Rh14      1.0  0.22600  0.95600  0.25000  1.0000
  Rh  Rh15      1.0  0.86000  0.97100  0.25000  1.0000
  Rh  Rh16      1.0  0.14000  0.02890  0.75000  1.0000
  Rh  Rh17      1.0  0.77400  0.04410  0.75000  1.0000
  Rh  Rh18      1.0  0.97100  0.11200  0.75000  1.0000
  Rh  Rh19      1.0  0.65200  0.22400  0.75000  1.0000
  Rh  Rh20      1.0  0.27000  0.22600  0.75000  1.0000
  Rh  Rh21      1.0  0.57100  0.34800  0.75000  1.0000
  Rh  Rh22      1.0  0.15200  0.41400  0.75000  1.0000
  Rh  Rh23      1.0  0.77600  0.42900  0.75000  1.0000
  Rh  Rh24      1.0  0.46200  0.53700  0.75000  1.0000
  Rh  Rh25      1.0  0.07510  0.53800  0.75000  1.0000
  Rh  Rh26      1.0  0.95600  0.73000  0.75000  1.0000
  Rh  Rh27      1.0  0.58600  0.73800  0.75000  1.0000
  Rh  Rh28      1.0  0.26200  0.84800  0.75000  1.0000
  Rh  Rh29      1.0  0.88800  0.86000  0.75000  1.0000
  Rh  Rh30      1.0  0.46300  0.92500  0.75000  1.0000
  Si  Si1       1.0  0.24900  0.12000  0.25000  1.0000
  Si  Si2       1.0  0.88000  0.12900  0.25000  1.0000
  Si  Si3       1.0  0.55900  0.24000  0.25000  1.0000
  Si  Si4       1.0  0.76000  0.31900  0.25000  1.0000
  Si  Si5       1.0  0.06250  0.43300  0.25000  1.0000
  Si  Si6       1.0  0.68100  0.44100  0.25000  1.0000
  Si  Si7       1.0  0.56700  0.63000  0.25000  1.0000
  Si  Si8       1.0  0.87100  0.75100  0.25000  1.0000
  Si  Si9       1.0  0.37000  0.93700  0.25000  1.0000
  Si  Si10      1.0  0.63000  0.06250  0.75000  1.0000
  Si  Si11      1.0  0.12900  0.24900  0.75000  1.0000
  Si  Si12      1.0  0.43300  0.37000  0.75000  1.0000
  Si  Si13      1.0  0.31900  0.55900  0.75000  1.0000
  Si  Si14      1.0  0.93700  0.56700  0.75000  1.0000
  Si  Si15      1.0  0.24000  0.68100  0.75000  1.0000
  Si  Si16      1.0  0.44100  0.76000  0.75000  1.0000
  Si  Si17      1.0  0.12000  0.87100  0.75000  1.0000
  Si  Si18      1.0  0.75100  0.88000  0.75000  1.0000
  Sm  Sm1       1.0  0.29400  0.39400  0.25000  1.0000
  Sm  Sm2       1.0  0.10000  0.70600  0.25000  1.0000
  Sm  Sm3       1.0  0.60600  0.90000  0.25000  1.0000
  Sm  Sm4       1.0  0.39400  0.10000  0.75000  1.0000
  Sm  Sm5       1.0  0.90000  0.29400  0.75000  1.0000
  Sm  Sm6       1.0  0.70600  0.60600  0.75000  1.0000
