data_image0
_chemical_formula_structural       Ni2O2Te2Zn2
_chemical_formula_sum              "Ni2 O2 Te2 Zn2"
_cell_length_a       3.2498
_cell_length_b       5.88985
_cell_length_c       6.79352
_cell_angle_alpha    90
_cell_angle_beta     76.1619
_cell_angle_gamma    90

_space_group_name_H-M_alt    "P 1"
_space_group_IT_number       1

loop_
  _space_group_symop_operation_xyz
  'x, y, z'

loop_
  _atom_site_type_symbol
  _atom_site_label
  _atom_site_symmetry_multiplicity
  _atom_site_fract_x
  _atom_site_fract_y
  _atom_site_fract_z
  _atom_site_occupancy
  Ni  Ni1       1.0  0.45400  0.75000  0.09220  1.0000
  Ni  Ni2       1.0  0.54600  0.25000  0.90800  1.0000
  O   O1        1.0  0.00000  0.00000  0.00000  1.0000
  O   O2        1.0  0.00000  0.50000  0.00000  1.0000
  Te  Te1       1.0  0.77000  0.75000  0.46000  1.0000
  Te  Te2       1.0  0.23000  0.25000  0.54000  1.0000
  Zn  Zn1       1.0  0.89500  0.25000  0.21000  1.0000
  Zn  Zn2       1.0  0.10500  0.75000  0.79000  1.0000
