data_image0
_chemical_formula_structural       Bi4Br2
_chemical_formula_sum              "Bi4 Br2"
_cell_length_a       8.02608
_cell_length_b       6.83262
_cell_length_c       3.43138
_cell_angle_alpha    90
_cell_angle_beta     90
_cell_angle_gamma    90

_space_group_name_H-M_alt    "P 1"
_space_group_IT_number       1

loop_
  _space_group_symop_operation_xyz
  'x, y, z'

loop_
  _atom_site_type_symbol
  _atom_site_label
  _atom_site_symmetry_multiplicity
  _atom_site_fract_x
  _atom_site_fract_y
  _atom_site_fract_z
  _atom_site_occupancy
  Bi  Bi1       1.0  0.14600  0.35800  0.00000  1.0000
  Bi  Bi2       1.0  0.85400  0.64200  0.00000  1.0000
  Bi  Bi3       1.0  0.64600  0.14200  0.50000  1.0000
  Bi  Bi4       1.0  0.35400  0.85800  0.50000  1.0000
  Br  Br1       1.0  0.50000  0.50000  0.00000  1.0000
  Br  Br2       1.0  0.00000  0.00000  0.50000  1.0000
