data_image0
_chemical_formula_structural       Bi16Zr8
_chemical_formula_sum              "Bi16 Zr8"
_cell_length_a       15.6052
_cell_length_b       10.3183
_cell_length_c       4.02606
_cell_angle_alpha    90
_cell_angle_beta     90
_cell_angle_gamma    90

_space_group_name_H-M_alt    "P 1"
_space_group_IT_number       1

loop_
  _space_group_symop_operation_xyz
  'x, y, z'

loop_
  _atom_site_type_symbol
  _atom_site_label
  _atom_site_symmetry_multiplicity
  _atom_site_fract_x
  _atom_site_fract_y
  _atom_site_fract_z
  _atom_site_occupancy
  Bi  Bi1       1.0  0.05700  0.12200  0.00000  1.0000
  Bi  Bi2       1.0  0.70000  0.26500  0.00000  1.0000
  Bi  Bi3       1.0  0.35000  0.34600  0.00000  1.0000
  Bi  Bi4       1.0  0.89400  0.48700  0.00000  1.0000
  Bi  Bi5       1.0  0.10600  0.51300  0.00000  1.0000
  Bi  Bi6       1.0  0.65000  0.65400  0.00000  1.0000
  Bi  Bi7       1.0  0.30000  0.73500  0.00000  1.0000
  Bi  Bi8       1.0  0.94300  0.87800  0.00000  1.0000
  Bi  Bi9       1.0  0.39400  0.01320  0.50000  1.0000
  Bi  Bi10      1.0  0.85000  0.15400  0.50000  1.0000
  Bi  Bi11      1.0  0.20000  0.23500  0.50000  1.0000
  Bi  Bi12      1.0  0.55700  0.37800  0.50000  1.0000
  Bi  Bi13      1.0  0.44300  0.62200  0.50000  1.0000
  Bi  Bi14      1.0  0.80000  0.76500  0.50000  1.0000
  Bi  Bi15      1.0  0.15000  0.84600  0.50000  1.0000
  Bi  Bi16      1.0  0.60600  0.98700  0.50000  1.0000
  Zr  Zr1       1.0  0.24900  0.02330  0.00000  1.0000
  Zr  Zr2       1.0  0.50600  0.16300  0.00000  1.0000
  Zr  Zr3       1.0  0.49400  0.83700  0.00000  1.0000
  Zr  Zr4       1.0  0.75100  0.97700  0.00000  1.0000
  Zr  Zr5       1.0  0.00603  0.33700  0.50000  1.0000
  Zr  Zr6       1.0  0.74900  0.47700  0.50000  1.0000
  Zr  Zr7       1.0  0.25100  0.52300  0.50000  1.0000
  Zr  Zr8       1.0  0.99400  0.66300  0.50000  1.0000
