data_image0
_chemical_formula_structural       As2Sr4
_chemical_formula_sum              "As2 Sr4"
_cell_length_a       4.84583
_cell_length_b       4.84583
_cell_length_c       9.11275
_cell_angle_alpha    105.419
_cell_angle_beta     105.419
_cell_angle_gamma    90

_space_group_name_H-M_alt    "P 1"
_space_group_IT_number       1

loop_
  _space_group_symop_operation_xyz
  'x, y, z'

loop_
  _atom_site_type_symbol
  _atom_site_label
  _atom_site_symmetry_multiplicity
  _atom_site_fract_x
  _atom_site_fract_y
  _atom_site_fract_z
  _atom_site_occupancy
  As  As1       1.0  0.13300  0.13300  0.26700  1.0000
  As  As2       1.0  0.86700  0.86700  0.73300  1.0000
  Sr  Sr1       1.0  0.50000  0.00000  0.00000  1.0000
  Sr  Sr2       1.0  0.00000  0.50000  0.00000  1.0000
  Sr  Sr3       1.0  0.68200  0.68200  0.36300  1.0000
  Sr  Sr4       1.0  0.31800  0.31800  0.63700  1.0000
