data_image0
_chemical_formula_structural       F2Fe2Li4O4
_chemical_formula_sum              "F2 Fe2 Li4 O4"
_cell_length_a       2.91034
_cell_length_b       2.91034
_cell_length_c       14.1325
_cell_angle_alpha    90
_cell_angle_beta     90
_cell_angle_gamma    120

_space_group_name_H-M_alt    "P 1"
_space_group_IT_number       1

loop_
  _space_group_symop_operation_xyz
  'x, y, z'

loop_
  _atom_site_type_symbol
  _atom_site_label
  _atom_site_symmetry_multiplicity
  _atom_site_fract_x
  _atom_site_fract_y
  _atom_site_fract_z
  _atom_site_occupancy
  F   F1        1.0  0.66700  0.33300  0.08030  1.0000
  F   F2        1.0  0.33300  0.66700  0.92000  1.0000
  Fe  Fe1       1.0  0.66700  0.33300  0.33100  1.0000
  Fe  Fe2       1.0  0.33300  0.66700  0.66900  1.0000
  Li  Li1       1.0  0.00000  0.00000  0.00000  1.0000
  Li  Li2       1.0  0.33300  0.66700  0.16000  1.0000
  Li  Li3       1.0  0.00000  0.00000  0.50000  1.0000
  Li  Li4       1.0  0.66700  0.33300  0.84000  1.0000
  O   O1        1.0  0.00000  0.00000  0.25100  1.0000
  O   O2        1.0  0.33300  0.66700  0.41100  1.0000
  O   O3        1.0  0.66700  0.33300  0.58900  1.0000
  O   O4        1.0  0.00000  0.00000  0.74900  1.0000
