data_image0
_chemical_formula_structural       Er3Pd3Zn3
_chemical_formula_sum              "Er3 Pd3 Zn3"
_cell_length_a       7.24148
_cell_length_b       7.24148
_cell_length_c       3.84501
_cell_angle_alpha    90
_cell_angle_beta     90
_cell_angle_gamma    120.001

_space_group_name_H-M_alt    "P 1"
_space_group_IT_number       1

loop_
  _space_group_symop_operation_xyz
  'x, y, z'

loop_
  _atom_site_type_symbol
  _atom_site_label
  _atom_site_symmetry_multiplicity
  _atom_site_fract_x
  _atom_site_fract_y
  _atom_site_fract_z
  _atom_site_occupancy
  Er  Er1       1.0  0.59500  0.00002  0.50000  1.0000
  Er  Er2       1.0  0.40500  0.40500  0.50000  1.0000
  Er  Er3       1.0  0.00002  0.59500  0.50000  1.0000
  Pd  Pd1       1.0  0.66700  0.33300  0.00000  1.0000
  Pd  Pd2       1.0  0.33300  0.66700  0.00000  1.0000
  Pd  Pd3       1.0  0.00000  0.00000  0.50000  1.0000
  Zn  Zn1       1.0  0.25200  0.00000  0.00000  1.0000
  Zn  Zn2       1.0  0.00000  0.25200  0.00000  1.0000
  Zn  Zn3       1.0  0.74800  0.74800  0.00000  1.0000
