data_image0
_chemical_formula_structural       Hg2O2S2Sr2
_chemical_formula_sum              "Hg2 O2 S2 Sr2"
_cell_length_a       4.07205
_cell_length_b       4.0721
_cell_length_c       12.4183
_cell_angle_alpha    90
_cell_angle_beta     90
_cell_angle_gamma    120

_space_group_name_H-M_alt    "P 1"
_space_group_IT_number       1

loop_
  _space_group_symop_operation_xyz
  'x, y, z'

loop_
  _atom_site_type_symbol
  _atom_site_label
  _atom_site_symmetry_multiplicity
  _atom_site_fract_x
  _atom_site_fract_y
  _atom_site_fract_z
  _atom_site_occupancy
  Hg  Hg1       1.0  0.00000  0.00000  0.00159  1.0000
  Hg  Hg2       1.0  0.00000  0.00000  0.50200  1.0000
  O   O1        1.0  0.00000  0.00000  0.32500  1.0000
  O   O2        1.0  0.00000  0.00000  0.82500  1.0000
  S   S1        1.0  0.66700  0.33300  0.09300  1.0000
  S   S2        1.0  0.33300  0.66700  0.59300  1.0000
  Sr  Sr1       1.0  0.33300  0.66700  0.26800  1.0000
  Sr  Sr2       1.0  0.66700  0.33300  0.76800  1.0000
