data_image0
_chemical_formula_structural       Be2Mn2O2S2
_chemical_formula_sum              "Be2 Mn2 O2 S2"
_cell_length_a       4.29417
_cell_length_b       4.29417
_cell_length_c       6.0683
_cell_angle_alpha    90
_cell_angle_beta     90
_cell_angle_gamma    90

_space_group_name_H-M_alt    "P 1"
_space_group_IT_number       1

loop_
  _space_group_symop_operation_xyz
  'x, y, z'

loop_
  _atom_site_type_symbol
  _atom_site_label
  _atom_site_symmetry_multiplicity
  _atom_site_fract_x
  _atom_site_fract_y
  _atom_site_fract_z
  _atom_site_occupancy
  Be  Be1       1.0  0.25000  0.25000  0.34900  1.0000
  Be  Be2       1.0  0.75000  0.75000  0.65100  1.0000
  Mn  Mn1       1.0  0.75000  0.75000  0.20300  1.0000
  Mn  Mn2       1.0  0.25000  0.25000  0.79700  1.0000
  O   O1        1.0  0.25000  0.25000  0.11000  1.0000
  O   O2        1.0  0.75000  0.75000  0.89000  1.0000
  S   S1        1.0  0.75000  0.25000  0.50000  1.0000
  S   S2        1.0  0.25000  0.75000  0.50000  1.0000
