data_image0
_chemical_formula_structural       Ba4Mg4O4Se4
_chemical_formula_sum              "Ba4 Mg4 O4 Se4"
_cell_length_a       6.42534
_cell_length_b       4.27813
_cell_length_c       14.1133
_cell_angle_alpha    90
_cell_angle_beta     90
_cell_angle_gamma    90

_space_group_name_H-M_alt    "P 1"
_space_group_IT_number       1

loop_
  _space_group_symop_operation_xyz
  'x, y, z'

loop_
  _atom_site_type_symbol
  _atom_site_label
  _atom_site_symmetry_multiplicity
  _atom_site_fract_x
  _atom_site_fract_y
  _atom_site_fract_z
  _atom_site_occupancy
  Ba  Ba1       1.0  0.25200  0.75000  0.10400  1.0000
  Ba  Ba2       1.0  0.75200  0.75000  0.39600  1.0000
  Ba  Ba3       1.0  0.24800  0.25000  0.60400  1.0000
  Ba  Ba4       1.0  0.74800  0.25000  0.89600  1.0000
  Mg  Mg1       1.0  0.66900  0.25000  0.19000  1.0000
  Mg  Mg2       1.0  0.16900  0.25000  0.31000  1.0000
  Mg  Mg3       1.0  0.83100  0.75000  0.69000  1.0000
  Mg  Mg4       1.0  0.33100  0.75000  0.81000  1.0000
  O   O1        1.0  0.36300  0.25000  0.20300  1.0000
  O   O2        1.0  0.86300  0.25000  0.29700  1.0000
  O   O3        1.0  0.13700  0.75000  0.70300  1.0000
  O   O4        1.0  0.63700  0.75000  0.79700  1.0000
  Se  Se1       1.0  0.75100  0.75000  0.08460  1.0000
  Se  Se2       1.0  0.25100  0.75000  0.41500  1.0000
  Se  Se3       1.0  0.74900  0.25000  0.58500  1.0000
  Se  Se4       1.0  0.24900  0.25000  0.91500  1.0000
