data_image0
_chemical_formula_structural       C4H24N8O12
_chemical_formula_sum              "C4 H24 N8 O12"
_cell_length_a       5.96192
_cell_length_b       6.41255
_cell_length_c       10.14
_cell_angle_alpha    90
_cell_angle_beta     90
_cell_angle_gamma    90

_space_group_name_H-M_alt    "P 1"
_space_group_IT_number       1

loop_
  _space_group_symop_operation_xyz
  'x, y, z'

loop_
  _atom_site_type_symbol
  _atom_site_label
  _atom_site_symmetry_multiplicity
  _atom_site_fract_x
  _atom_site_fract_y
  _atom_site_fract_z
  _atom_site_occupancy
  C   C1        1.0  0.34600  0.25000  0.00132  1.0000
  C   C2        1.0  0.84600  0.75000  0.49900  1.0000
  C   C3        1.0  0.15400  0.25000  0.50100  1.0000
  C   C4        1.0  0.65400  0.75000  0.99900  1.0000
  H   H1        1.0  0.48900  0.75000  0.04510  1.0000
  H   H2        1.0  0.32600  0.11000  0.06190  1.0000
  H   H3        1.0  0.32600  0.39000  0.06190  1.0000
  H   H4        1.0  0.98600  0.75000  0.06250  1.0000
  H   H5        1.0  0.81100  0.61800  0.16200  1.0000
  H   H6        1.0  0.81100  0.88200  0.16200  1.0000
  H   H7        1.0  0.31100  0.11800  0.33800  1.0000
  H   H8        1.0  0.31100  0.38200  0.33800  1.0000
  H   H9        1.0  0.48600  0.25000  0.43800  1.0000
  H   H10       1.0  0.82600  0.61000  0.43800  1.0000
  H   H11       1.0  0.82600  0.89000  0.43800  1.0000
  H   H12       1.0  0.98900  0.25000  0.45500  1.0000
  H   H13       1.0  0.01090  0.75000  0.54500  1.0000
  H   H14       1.0  0.17400  0.11000  0.56200  1.0000
  H   H15       1.0  0.17400  0.39000  0.56200  1.0000
  H   H16       1.0  0.51400  0.75000  0.56200  1.0000
  H   H17       1.0  0.68900  0.61800  0.66200  1.0000
  H   H18       1.0  0.68900  0.88200  0.66200  1.0000
  H   H19       1.0  0.18900  0.11800  0.83800  1.0000
  H   H20       1.0  0.18900  0.38200  0.83800  1.0000
  H   H21       1.0  0.01390  0.25000  0.93800  1.0000
  H   H22       1.0  0.67400  0.61000  0.93800  1.0000
  H   H23       1.0  0.67400  0.89000  0.93800  1.0000
  H   H24       1.0  0.51100  0.25000  0.95500  1.0000
  N   N1        1.0  0.82800  0.75000  0.10200  1.0000
  N   N2        1.0  0.76400  0.25000  0.21000  1.0000
  N   N3        1.0  0.26400  0.75000  0.29000  1.0000
  N   N4        1.0  0.32800  0.25000  0.39800  1.0000
  N   N5        1.0  0.67200  0.75000  0.60200  1.0000
  N   N6        1.0  0.73600  0.25000  0.71000  1.0000
  N   N7        1.0  0.23600  0.75000  0.79000  1.0000
  N   N8        1.0  0.17200  0.25000  0.89800  1.0000
  O   O1        1.0  0.83900  0.25000  0.09380  1.0000
  O   O2        1.0  0.22400  0.57900  0.23100  1.0000
  O   O3        1.0  0.22400  0.92100  0.23100  1.0000
  O   O4        1.0  0.72400  0.07940  0.26900  1.0000
  O   O5        1.0  0.72400  0.42100  0.26900  1.0000
  O   O6        1.0  0.33900  0.75000  0.40600  1.0000
  O   O7        1.0  0.66100  0.25000  0.59400  1.0000
  O   O8        1.0  0.27600  0.57900  0.73100  1.0000
  O   O9        1.0  0.27600  0.92100  0.73100  1.0000
  O   O10       1.0  0.77600  0.07940  0.76900  1.0000
  O   O11       1.0  0.77600  0.42100  0.76900  1.0000
  O   O12       1.0  0.16100  0.75000  0.90600  1.0000
