data_image0
_chemical_formula_structural       C12H24N4S8Sn2
_chemical_formula_sum              "C12 H24 N4 S8 Sn2"
_cell_length_a       7.48137
_cell_length_b       7.48137
_cell_length_c       12.256
_cell_angle_alpha    101.211
_cell_angle_beta     101.211
_cell_angle_gamma    106.134

_space_group_name_H-M_alt    "P 1"
_space_group_IT_number       1

loop_
  _space_group_symop_operation_xyz
  'x, y, z'

loop_
  _atom_site_type_symbol
  _atom_site_label
  _atom_site_symmetry_multiplicity
  _atom_site_fract_x
  _atom_site_fract_y
  _atom_site_fract_z
  _atom_site_occupancy
  C   C1        1.0  0.77100  0.15900  0.06470  1.0000
  C   C2        1.0  0.11500  0.32600  0.08610  1.0000
  C   C3        1.0  0.11000  0.82700  0.10600  1.0000
  C   C4        1.0  0.17300  0.89000  0.39400  1.0000
  C   C5        1.0  0.67400  0.88500  0.41400  1.0000
  C   C6        1.0  0.84100  0.22900  0.43500  1.0000
  C   C7        1.0  0.15900  0.77100  0.56500  1.0000
  C   C8        1.0  0.32600  0.11500  0.58600  1.0000
  C   C9        1.0  0.82700  0.11000  0.60600  1.0000
  C   C10       1.0  0.89000  0.17300  0.89400  1.0000
  C   C11       1.0  0.88500  0.67400  0.91400  1.0000
  C   C12       1.0  0.22900  0.84100  0.93500  1.0000
  H   H1        1.0  0.66200  0.22400  0.03390  1.0000
  H   H2        1.0  0.70900  0.00079  0.03470  1.0000
  H   H3        1.0  0.98000  0.77500  0.13500  1.0000
  H   H4        1.0  0.17100  0.98500  0.14000  1.0000
  H   H5        1.0  0.21800  0.76400  0.14000  1.0000
  H   H6        1.0  0.81500  0.20200  0.15900  1.0000
  H   H7        1.0  0.79800  0.18500  0.34100  1.0000
  H   H8        1.0  0.23600  0.78200  0.36000  1.0000
  H   H9        1.0  0.01480  0.82900  0.36000  1.0000
  H   H10       1.0  0.22500  0.02050  0.36500  1.0000
  H   H11       1.0  0.99900  0.29100  0.46500  1.0000
  H   H12       1.0  0.77600  0.33800  0.46600  1.0000
  H   H13       1.0  0.22400  0.66200  0.53400  1.0000
  H   H14       1.0  0.00079  0.70900  0.53500  1.0000
  H   H15       1.0  0.77500  0.98000  0.63500  1.0000
  H   H16       1.0  0.98500  0.17100  0.64000  1.0000
  H   H17       1.0  0.76400  0.21800  0.64000  1.0000
  H   H18       1.0  0.20200  0.81500  0.65900  1.0000
  H   H19       1.0  0.18500  0.79800  0.84100  1.0000
  H   H20       1.0  0.78200  0.23600  0.86000  1.0000
  H   H21       1.0  0.82900  0.01480  0.86000  1.0000
  H   H22       1.0  0.02050  0.22500  0.86500  1.0000
  H   H23       1.0  0.29100  0.99900  0.96500  1.0000
  H   H24       1.0  0.33800  0.77600  0.96600  1.0000
  N   N1        1.0  0.93600  0.22500  0.01920  1.0000
  N   N2        1.0  0.77500  0.06380  0.48100  1.0000
  N   N3        1.0  0.22500  0.93600  0.51900  1.0000
  N   N4        1.0  0.06370  0.77500  0.98100  1.0000
  S   S1        1.0  0.30500  0.40000  0.02790  1.0000
  S   S2        1.0  0.16000  0.38200  0.23500  1.0000
  S   S3        1.0  0.61800  0.84000  0.26500  1.0000
  S   S4        1.0  0.60000  0.69500  0.47200  1.0000
  S   S5        1.0  0.40000  0.30500  0.52800  1.0000
  S   S6        1.0  0.38200  0.16000  0.73500  1.0000
  S   S7        1.0  0.84000  0.61800  0.76500  1.0000
  S   S8        1.0  0.69500  0.60000  0.97200  1.0000
  Sn  Sn1       1.0  0.52900  0.47100  0.25000  1.0000
  Sn  Sn2       1.0  0.47100  0.52900  0.75000  1.0000
