data_image0
_chemical_formula_structural       C12H32S8
_chemical_formula_sum              "C12 H32 S8"
_cell_length_a       7.08399
_cell_length_b       10.6875
_cell_length_c       7.8886
_cell_angle_alpha    90
_cell_angle_beta     109.821
_cell_angle_gamma    90

_space_group_name_H-M_alt    "P 1"
_space_group_IT_number       1

loop_
  _space_group_symop_operation_xyz
  'x, y, z'

loop_
  _atom_site_type_symbol
  _atom_site_label
  _atom_site_symmetry_multiplicity
  _atom_site_fract_x
  _atom_site_fract_y
  _atom_site_fract_z
  _atom_site_occupancy
  C   C1        1.0  0.77600  0.60800  0.07060  1.0000
  C   C2        1.0  0.40700  0.06090  0.17500  1.0000
  C   C3        1.0  0.07870  0.77800  0.23000  1.0000
  C   C4        1.0  0.92100  0.27800  0.27000  1.0000
  C   C5        1.0  0.59300  0.56100  0.32500  1.0000
  C   C6        1.0  0.22400  0.10800  0.42900  1.0000
  C   C7        1.0  0.77600  0.89200  0.57100  1.0000
  C   C8        1.0  0.40700  0.43900  0.67500  1.0000
  C   C9        1.0  0.07870  0.72200  0.73000  1.0000
  C   C10       1.0  0.92100  0.22200  0.77000  1.0000
  C   C11       1.0  0.59300  0.93900  0.82500  1.0000
  C   C12       1.0  0.22400  0.39200  0.92900  1.0000
  H   H1        1.0  0.74200  0.50900  0.03370  1.0000
  H   H2        1.0  0.23800  0.34000  0.05300  1.0000
  H   H3        1.0  0.25400  0.05300  0.07800  1.0000
  H   H4        1.0  0.07900  0.81300  0.09860  1.0000
  H   H5        1.0  0.50700  0.09660  0.10600  1.0000
  H   H6        1.0  0.77400  0.29400  0.16700  1.0000
  H   H7        1.0  0.03510  0.32800  0.23000  1.0000
  H   H8        1.0  0.46100  0.96900  0.23300  1.0000
  H   H9        1.0  0.53900  0.46900  0.26700  1.0000
  H   H10       1.0  0.96500  0.82800  0.27000  1.0000
  H   H11       1.0  0.22600  0.79400  0.33300  1.0000
  H   H12       1.0  0.49300  0.59700  0.39400  1.0000
  H   H13       1.0  0.92100  0.31300  0.40100  1.0000
  H   H14       1.0  0.74600  0.55300  0.42200  1.0000
  H   H15       1.0  0.76200  0.84000  0.44700  1.0000
  H   H16       1.0  0.25800  0.00885  0.46600  1.0000
  H   H17       1.0  0.74200  0.99100  0.53400  1.0000
  H   H18       1.0  0.23800  0.16000  0.55300  1.0000
  H   H19       1.0  0.25400  0.44700  0.57800  1.0000
  H   H20       1.0  0.07900  0.68700  0.59900  1.0000
  H   H21       1.0  0.50700  0.40300  0.60600  1.0000
  H   H22       1.0  0.77400  0.20600  0.66700  1.0000
  H   H23       1.0  0.03510  0.17200  0.73000  1.0000
  H   H24       1.0  0.46100  0.53100  0.73300  1.0000
  H   H25       1.0  0.53900  0.03120  0.76700  1.0000
  H   H26       1.0  0.96500  0.67200  0.77000  1.0000
  H   H27       1.0  0.22600  0.70600  0.83300  1.0000
  H   H28       1.0  0.49300  0.90300  0.89400  1.0000
  H   H29       1.0  0.92100  0.18700  0.90100  1.0000
  H   H30       1.0  0.74600  0.94700  0.92200  1.0000
  H   H31       1.0  0.76200  0.66000  0.94700  1.0000
  H   H32       1.0  0.25800  0.49100  0.96600  1.0000
  S   S1        1.0  0.58500  0.67300  0.15100  1.0000
  S   S2        1.0  0.03200  0.61200  0.22300  1.0000
  S   S3        1.0  0.96800  0.11200  0.27700  1.0000
  S   S4        1.0  0.41500  0.17300  0.34900  1.0000
  S   S5        1.0  0.58500  0.82700  0.65100  1.0000
  S   S6        1.0  0.03200  0.88800  0.72300  1.0000
  S   S7        1.0  0.96800  0.38800  0.77700  1.0000
  S   S8        1.0  0.41500  0.32700  0.84900  1.0000
