data_image0
_chemical_formula_structural       C8H20N16Ni2S4
_chemical_formula_sum              "C8 H20 N16 Ni2 S4"
_cell_length_a       7.8036
_cell_length_b       8.28289
_cell_length_c       8.88577
_cell_angle_alpha    110.868
_cell_angle_beta     90
_cell_angle_gamma    118.104

_space_group_name_H-M_alt    "P 1"
_space_group_IT_number       1

loop_
  _space_group_symop_operation_xyz
  'x, y, z'

loop_
  _atom_site_type_symbol
  _atom_site_label
  _atom_site_symmetry_multiplicity
  _atom_site_fract_x
  _atom_site_fract_y
  _atom_site_fract_z
  _atom_site_occupancy
  C   C1        1.0  0.84800  0.22600  0.08700  1.0000
  C   C2        1.0  0.18300  0.27800  0.13600  1.0000
  C   C3        1.0  0.90500  0.72200  0.36400  1.0000
  C   C4        1.0  0.62200  0.77400  0.41300  1.0000
  C   C5        1.0  0.37800  0.22600  0.58700  1.0000
  C   C6        1.0  0.09540  0.27800  0.63600  1.0000
  C   C7        1.0  0.81700  0.72200  0.86400  1.0000
  C   C8        1.0  0.15200  0.77400  0.91300  1.0000
  H   H1        1.0  0.09960  0.43100  0.04280  1.0000
  H   H2        1.0  0.40900  0.51000  0.09700  1.0000
  H   H3        1.0  0.47200  0.34400  0.12300  1.0000
  H   H4        1.0  0.62200  0.03280  0.14100  1.0000
  H   H5        1.0  0.25100  0.13000  0.22900  1.0000
  H   H6        1.0  0.12000  0.87000  0.27100  1.0000
  H   H7        1.0  0.58900  0.96700  0.35900  1.0000
  H   H8        1.0  0.12800  0.65600  0.37700  1.0000
  H   H9        1.0  0.89800  0.49000  0.40300  1.0000
  H   H10       1.0  0.66900  0.56900  0.45700  1.0000
  H   H11       1.0  0.33100  0.43100  0.54300  1.0000
  H   H12       1.0  0.10200  0.51000  0.59700  1.0000
  H   H13       1.0  0.87200  0.34400  0.62300  1.0000
  H   H14       1.0  0.41100  0.03280  0.64100  1.0000
  H   H15       1.0  0.88000  0.13000  0.72900  1.0000
  H   H16       1.0  0.74900  0.87000  0.77100  1.0000
  H   H17       1.0  0.37800  0.96700  0.85900  1.0000
  H   H18       1.0  0.52800  0.65600  0.87700  1.0000
  H   H19       1.0  0.59100  0.49000  0.90300  1.0000
  H   H20       1.0  0.90000  0.56900  0.95700  1.0000
  N   N1        1.0  0.04830  0.32400  0.09170  1.0000
  N   N2        1.0  0.36600  0.38000  0.11000  1.0000
  N   N3        1.0  0.77500  0.10600  0.16300  1.0000
  N   N4        1.0  0.13200  0.14000  0.19400  1.0000
  N   N5        1.0  0.99100  0.86000  0.30600  1.0000
  N   N6        1.0  0.66800  0.89400  0.33700  1.0000
  N   N7        1.0  0.98600  0.62000  0.39000  1.0000
  N   N8        1.0  0.72400  0.67600  0.40800  1.0000
  N   N9        1.0  0.27600  0.32400  0.59200  1.0000
  N   N10       1.0  0.01410  0.38000  0.61000  1.0000
  N   N11       1.0  0.33200  0.10600  0.66300  1.0000
  N   N12       1.0  0.00855  0.14000  0.69400  1.0000
  N   N13       1.0  0.86800  0.86000  0.80600  1.0000
  N   N14       1.0  0.22500  0.89400  0.83700  1.0000
  N   N15       1.0  0.63400  0.62000  0.89000  1.0000
  N   N16       1.0  0.95200  0.67600  0.90800  1.0000
  Ni  Ni1       1.0  0.89100  0.00000  0.25000  1.0000
  Ni  Ni2       1.0  0.10900  0.00000  0.75000  1.0000
  S   S1        1.0  0.29600  0.73600  0.02820  1.0000
  S   S2        1.0  0.56000  0.26400  0.47200  1.0000
  S   S3        1.0  0.44000  0.73600  0.52800  1.0000
  S   S4        1.0  0.70400  0.26400  0.97200  1.0000
