data_image0
_chemical_formula_structural       Br8C8H24N8S4
_chemical_formula_sum              "Br8 C8 H24 N8 S4"
_cell_length_a       7.33491
_cell_length_b       7.33491
_cell_length_c       12.6441
_cell_angle_alpha    90
_cell_angle_beta     90
_cell_angle_gamma    90

_space_group_name_H-M_alt    "P 1"
_space_group_IT_number       1

loop_
  _space_group_symop_operation_xyz
  'x, y, z'

loop_
  _atom_site_type_symbol
  _atom_site_label
  _atom_site_symmetry_multiplicity
  _atom_site_fract_x
  _atom_site_fract_y
  _atom_site_fract_z
  _atom_site_occupancy
  Br  Br1       1.0  0.08940  0.70900  0.11500  1.0000
  Br  Br2       1.0  0.41100  0.20900  0.13500  1.0000
  Br  Br3       1.0  0.79100  0.58900  0.36500  1.0000
  Br  Br4       1.0  0.29100  0.91100  0.38500  1.0000
  Br  Br5       1.0  0.91100  0.29100  0.61500  1.0000
  Br  Br6       1.0  0.58900  0.79100  0.63500  1.0000
  Br  Br7       1.0  0.20900  0.41100  0.86500  1.0000
  Br  Br8       1.0  0.70900  0.08940  0.88500  1.0000
  C   C1        1.0  0.56200  0.67900  0.09950  1.0000
  C   C2        1.0  0.93800  0.17900  0.15000  1.0000
  C   C3        1.0  0.82100  0.06210  0.35000  1.0000
  C   C4        1.0  0.32100  0.43800  0.40000  1.0000
  C   C5        1.0  0.43800  0.32100  0.60000  1.0000
  C   C6        1.0  0.06210  0.82100  0.65000  1.0000
  C   C7        1.0  0.17900  0.93800  0.85000  1.0000
  C   C8        1.0  0.67900  0.56200  0.90000  1.0000
  H   H1        1.0  0.54700  0.81600  0.06570  1.0000
  H   H2        1.0  0.03590  0.16000  0.08610  1.0000
  H   H3        1.0  0.79800  0.15500  0.12400  1.0000
  H   H4        1.0  0.70200  0.65500  0.12600  1.0000
  H   H5        1.0  0.46400  0.66000  0.16400  1.0000
  H   H6        1.0  0.95300  0.31600  0.18400  1.0000
  H   H7        1.0  0.68400  0.04730  0.31600  1.0000
  H   H8        1.0  0.34000  0.53600  0.33600  1.0000
  H   H9        1.0  0.34500  0.29800  0.37400  1.0000
  H   H10       1.0  0.84500  0.20200  0.37600  1.0000
  H   H11       1.0  0.84000  0.96400  0.41400  1.0000
  H   H12       1.0  0.18400  0.45300  0.43400  1.0000
  H   H13       1.0  0.45300  0.18400  0.56600  1.0000
  H   H14       1.0  0.96400  0.84000  0.58600  1.0000
  H   H15       1.0  0.20200  0.84500  0.62400  1.0000
  H   H16       1.0  0.29800  0.34500  0.62600  1.0000
  H   H17       1.0  0.53600  0.34000  0.66400  1.0000
  H   H18       1.0  0.04730  0.68400  0.68400  1.0000
  H   H19       1.0  0.31600  0.95300  0.81600  1.0000
  H   H20       1.0  0.66000  0.46400  0.83600  1.0000
  H   H21       1.0  0.65500  0.70200  0.87400  1.0000
  H   H22       1.0  0.15500  0.79800  0.87600  1.0000
  H   H23       1.0  0.16000  0.03590  0.91400  1.0000
  H   H24       1.0  0.81600  0.54700  0.93400  1.0000
  N   N1        1.0  0.57100  0.31200  0.02840  1.0000
  N   N2        1.0  0.92900  0.81200  0.22200  1.0000
  N   N3        1.0  0.18800  0.07110  0.27800  1.0000
  N   N4        1.0  0.68800  0.42900  0.47200  1.0000
  N   N5        1.0  0.42900  0.68800  0.52800  1.0000
  N   N6        1.0  0.07110  0.18800  0.72200  1.0000
  N   N7        1.0  0.81200  0.92900  0.77800  1.0000
  N   N8        1.0  0.31200  0.57100  0.97200  1.0000
  S   S1        1.0  0.51300  0.51300  0.00000  1.0000
  S   S2        1.0  0.98700  0.01330  0.25000  1.0000
  S   S3        1.0  0.48700  0.48700  0.50000  1.0000
  S   S4        1.0  0.01330  0.98700  0.75000  1.0000
