data_image0
_chemical_formula_structural       Mg3Ni20P6
_chemical_formula_sum              "Mg3 Ni20 P6"
_cell_length_a       7.83256
_cell_length_b       7.83256
_cell_length_c       7.83256
_cell_angle_alpha    120
_cell_angle_beta     90
_cell_angle_gamma    120

_space_group_name_H-M_alt    "P 1"
_space_group_IT_number       1

loop_
  _space_group_symop_operation_xyz
  'x, y, z'

loop_
  _atom_site_type_symbol
  _atom_site_label
  _atom_site_symmetry_multiplicity
  _atom_site_fract_x
  _atom_site_fract_y
  _atom_site_fract_z
  _atom_site_occupancy
  Mg  Mg1       1.0  0.00000  0.00000  0.00000  1.0000
  Mg  Mg2       1.0  0.75000  0.50000  0.25000  1.0000
  Mg  Mg3       1.0  0.25000  0.50000  0.75000  1.0000
  Ni  Ni1       1.0  0.35000  0.00000  0.00000  1.0000
  Ni  Ni2       1.0  0.65000  0.00000  0.00000  1.0000
  Ni  Ni3       1.0  0.00000  0.35000  0.00000  1.0000
  Ni  Ni4       1.0  0.35000  0.35000  0.00000  1.0000
  Ni  Ni5       1.0  0.00000  0.65000  0.00000  1.0000
  Ni  Ni6       1.0  0.65000  0.65000  0.00000  1.0000
  Ni  Ni7       1.0  0.38400  0.76800  0.15200  1.0000
  Ni  Ni8       1.0  0.00000  0.00000  0.35000  1.0000
  Ni  Ni9       1.0  0.00000  0.35000  0.35000  1.0000
  Ni  Ni10      1.0  0.35000  0.35000  0.35000  1.0000
  Ni  Ni11      1.0  0.15200  0.76800  0.38400  1.0000
  Ni  Ni12      1.0  0.61600  0.76800  0.38400  1.0000
  Ni  Ni13      1.0  0.61600  0.23200  0.38400  1.0000
  Ni  Ni14      1.0  0.38400  0.23200  0.61600  1.0000
  Ni  Ni15      1.0  0.38400  0.76800  0.61600  1.0000
  Ni  Ni16      1.0  0.84800  0.23200  0.61600  1.0000
  Ni  Ni17      1.0  0.00000  0.00000  0.65000  1.0000
  Ni  Ni18      1.0  0.00000  0.65000  0.65000  1.0000
  Ni  Ni19      1.0  0.65000  0.65000  0.65000  1.0000
  Ni  Ni20      1.0  0.61600  0.23200  0.84800  1.0000
  P   P1        1.0  0.26400  0.00000  0.26400  1.0000
  P   P2        1.0  0.73600  0.00000  0.26400  1.0000
  P   P3        1.0  0.26400  0.52900  0.26400  1.0000
  P   P4        1.0  0.26400  1.00000  0.73600  1.0000
  P   P5        1.0  0.73600  0.47100  0.73600  1.0000
  P   P6        1.0  0.73600  1.00000  0.73600  1.0000
