data_image0
_chemical_formula_structural       Au6Ba8Ge40
_chemical_formula_sum              "Au6 Ba8 Ge40"
_cell_length_a       10.9465
_cell_length_b       10.9465
_cell_length_c       10.9465
_cell_angle_alpha    90
_cell_angle_beta     90
_cell_angle_gamma    90

_space_group_name_H-M_alt    "P 1"
_space_group_IT_number       1

loop_
  _space_group_symop_operation_xyz
  'x, y, z'

loop_
  _atom_site_type_symbol
  _atom_site_label
  _atom_site_symmetry_multiplicity
  _atom_site_fract_x
  _atom_site_fract_y
  _atom_site_fract_z
  _atom_site_occupancy
  Au  Au1       1.0  0.50000  0.25000  0.00000  1.0000
  Au  Au2       1.0  0.50000  0.75000  0.00000  1.0000
  Au  Au3       1.0  0.00000  0.50000  0.25000  1.0000
  Au  Au4       1.0  0.25000  0.00000  0.50000  1.0000
  Au  Au5       1.0  0.75000  0.00000  0.50000  1.0000
  Au  Au6       1.0  0.00000  0.50000  0.75000  1.0000
  Ba  Ba1       1.0  0.00000  0.00000  0.00000  1.0000
  Ba  Ba2       1.0  0.25000  0.50000  0.00000  1.0000
  Ba  Ba3       1.0  0.75000  0.50000  0.00000  1.0000
  Ba  Ba4       1.0  0.50000  0.00000  0.25000  1.0000
  Ba  Ba5       1.0  0.00000  0.25000  0.50000  1.0000
  Ba  Ba6       1.0  0.50000  0.50000  0.50000  1.0000
  Ba  Ba7       1.0  0.00000  0.75000  0.50000  1.0000
  Ba  Ba8       1.0  0.50000  0.00000  0.75000  1.0000
  Ge  Ge1       1.0  0.30900  0.11700  0.00000  1.0000
  Ge  Ge2       1.0  0.69100  0.11700  0.00000  1.0000
  Ge  Ge3       1.0  0.30900  0.88300  0.00000  1.0000
  Ge  Ge4       1.0  0.69100  0.88300  0.00000  1.0000
  Ge  Ge5       1.0  0.00000  0.30900  0.11700  1.0000
  Ge  Ge6       1.0  0.00000  0.69100  0.11700  1.0000
  Ge  Ge7       1.0  0.18300  0.18300  0.18300  1.0000
  Ge  Ge8       1.0  0.81700  0.18300  0.18300  1.0000
  Ge  Ge9       1.0  0.18300  0.81700  0.18300  1.0000
  Ge  Ge10      1.0  0.81700  0.81700  0.18300  1.0000
  Ge  Ge11      1.0  0.50000  0.38300  0.19100  1.0000
  Ge  Ge12      1.0  0.50000  0.61700  0.19100  1.0000
  Ge  Ge13      1.0  0.11700  0.00000  0.30900  1.0000
  Ge  Ge14      1.0  0.88300  0.00000  0.30900  1.0000
  Ge  Ge15      1.0  0.31700  0.31700  0.31700  1.0000
  Ge  Ge16      1.0  0.68300  0.31700  0.31700  1.0000
  Ge  Ge17      1.0  0.31700  0.68300  0.31700  1.0000
  Ge  Ge18      1.0  0.68300  0.68300  0.31700  1.0000
  Ge  Ge19      1.0  0.19100  0.50000  0.38300  1.0000
  Ge  Ge20      1.0  0.80900  0.50000  0.38300  1.0000
  Ge  Ge21      1.0  0.38300  0.19100  0.50000  1.0000
  Ge  Ge22      1.0  0.61700  0.19100  0.50000  1.0000
  Ge  Ge23      1.0  0.38300  0.80900  0.50000  1.0000
  Ge  Ge24      1.0  0.61700  0.80900  0.50000  1.0000
  Ge  Ge25      1.0  0.19100  0.50000  0.61700  1.0000
  Ge  Ge26      1.0  0.80900  0.50000  0.61700  1.0000
  Ge  Ge27      1.0  0.31700  0.31700  0.68300  1.0000
  Ge  Ge28      1.0  0.68300  0.31700  0.68300  1.0000
  Ge  Ge29      1.0  0.31700  0.68300  0.68300  1.0000
  Ge  Ge30      1.0  0.68300  0.68300  0.68300  1.0000
  Ge  Ge31      1.0  0.11700  0.00000  0.69100  1.0000
  Ge  Ge32      1.0  0.88300  0.00000  0.69100  1.0000
  Ge  Ge33      1.0  0.50000  0.38300  0.80900  1.0000
  Ge  Ge34      1.0  0.50000  0.61700  0.80900  1.0000
  Ge  Ge35      1.0  0.18300  0.18300  0.81700  1.0000
  Ge  Ge36      1.0  0.81700  0.18300  0.81700  1.0000
  Ge  Ge37      1.0  0.18300  0.81700  0.81700  1.0000
  Ge  Ge38      1.0  0.81700  0.81700  0.81700  1.0000
  Ge  Ge39      1.0  0.00000  0.30900  0.88300  1.0000
  Ge  Ge40      1.0  0.00000  0.69100  0.88300  1.0000
