data_image0
_chemical_formula_structural       Br8C4H24Hg2N12
_chemical_formula_sum              "Br8 C4 H24 Hg2 N12"
_cell_length_a       7.46829
_cell_length_b       7.46829
_cell_length_c       13.0378
_cell_angle_alpha    104.853
_cell_angle_beta     104.853
_cell_angle_gamma    96.0158

_space_group_name_H-M_alt    "P 1"
_space_group_IT_number       1

loop_
  _space_group_symop_operation_xyz
  'x, y, z'

loop_
  _atom_site_type_symbol
  _atom_site_label
  _atom_site_symmetry_multiplicity
  _atom_site_fract_x
  _atom_site_fract_y
  _atom_site_fract_z
  _atom_site_occupancy
  Br  Br1       1.0  0.77700  0.98300  0.06000  1.0000
  Br  Br2       1.0  0.83200  0.56400  0.22500  1.0000
  Br  Br3       1.0  0.43600  0.16800  0.27500  1.0000
  Br  Br4       1.0  0.01700  0.22300  0.44000  1.0000
  Br  Br5       1.0  0.98300  0.77700  0.56000  1.0000
  Br  Br6       1.0  0.56400  0.83200  0.72500  1.0000
  Br  Br7       1.0  0.16800  0.43600  0.77500  1.0000
  Br  Br8       1.0  0.22300  0.01700  0.94000  1.0000
  C   C1        1.0  0.26400  0.62000  0.09980  1.0000
  C   C2        1.0  0.38000  0.73600  0.40000  1.0000
  C   C3        1.0  0.62000  0.26400  0.60000  1.0000
  C   C4        1.0  0.73600  0.38000  0.90000  1.0000
  H   H1        1.0  0.44300  0.79800  0.05960  1.0000
  H   H2        1.0  0.14300  0.84200  0.06930  1.0000
  H   H3        1.0  0.54000  0.61800  0.10300  1.0000
  H   H4        1.0  0.01270  0.68800  0.11600  1.0000
  H   H5        1.0  0.33800  0.37900  0.13600  1.0000
  H   H6        1.0  0.11700  0.42200  0.14500  1.0000
  H   H7        1.0  0.57800  0.88300  0.35500  1.0000
  H   H8        1.0  0.62100  0.66200  0.36400  1.0000
  H   H9        1.0  0.31200  0.98700  0.38400  1.0000
  H   H10       1.0  0.38200  0.46000  0.39700  1.0000
  H   H11       1.0  0.15800  0.85700  0.43100  1.0000
  H   H12       1.0  0.20200  0.55700  0.44000  1.0000
  H   H13       1.0  0.79800  0.44300  0.56000  1.0000
  H   H14       1.0  0.84200  0.14300  0.56900  1.0000
  H   H15       1.0  0.61800  0.54000  0.60300  1.0000
  H   H16       1.0  0.68800  0.01270  0.61600  1.0000
  H   H17       1.0  0.37900  0.33800  0.63600  1.0000
  H   H18       1.0  0.42200  0.11700  0.64500  1.0000
  H   H19       1.0  0.88300  0.57800  0.85500  1.0000
  H   H20       1.0  0.66200  0.62100  0.86400  1.0000
  H   H21       1.0  0.98700  0.31200  0.88400  1.0000
  H   H22       1.0  0.46000  0.38200  0.89700  1.0000
  H   H23       1.0  0.85700  0.15800  0.93100  1.0000
  H   H24       1.0  0.55700  0.20200  0.94000  1.0000
  Hg  Hg1       1.0  0.78500  0.21500  0.25000  1.0000
  Hg  Hg2       1.0  0.21500  0.78500  0.75000  1.0000
  N   N1        1.0  0.42200  0.67200  0.07600  1.0000
  N   N2        1.0  0.12500  0.71900  0.08890  1.0000
  N   N3        1.0  0.24200  0.46500  0.13200  1.0000
  N   N4        1.0  0.53500  0.75800  0.36800  1.0000
  N   N5        1.0  0.28100  0.87500  0.41100  1.0000
  N   N6        1.0  0.32800  0.57800  0.42400  1.0000
  N   N7        1.0  0.67200  0.42200  0.57600  1.0000
  N   N8        1.0  0.71900  0.12500  0.58900  1.0000
  N   N9        1.0  0.46500  0.24200  0.63200  1.0000
  N   N10       1.0  0.75800  0.53500  0.86800  1.0000
  N   N11       1.0  0.87500  0.28100  0.91100  1.0000
  N   N12       1.0  0.57800  0.32800  0.92400  1.0000
