data_image0
_chemical_formula_structural       C12H12N18Na6O6
_chemical_formula_sum              "C12 H12 N18 Na6 O6"
_cell_length_a       10.1523
_cell_length_b       10.1523
_cell_length_c       6.35203
_cell_angle_alpha    90
_cell_angle_beta     90
_cell_angle_gamma    120

_space_group_name_H-M_alt    "P 1"
_space_group_IT_number       1

loop_
  _space_group_symop_operation_xyz
  'x, y, z'

loop_
  _atom_site_type_symbol
  _atom_site_label
  _atom_site_symmetry_multiplicity
  _atom_site_fract_x
  _atom_site_fract_y
  _atom_site_fract_z
  _atom_site_occupancy
  C   C1        1.0  0.08710  0.14900  0.25000  1.0000
  C   C2        1.0  0.12600  0.39200  0.25000  1.0000
  C   C3        1.0  0.60800  0.73400  0.25000  1.0000
  C   C4        1.0  0.26600  0.87400  0.25000  1.0000
  C   C5        1.0  0.06230  0.91300  0.25000  1.0000
  C   C6        1.0  0.85100  0.93800  0.25000  1.0000
  C   C7        1.0  0.91300  0.06230  0.75000  1.0000
  C   C8        1.0  0.14900  0.08710  0.75000  1.0000
  C   C9        1.0  0.39200  0.12600  0.75000  1.0000
  C   C10       1.0  0.87400  0.26600  0.75000  1.0000
  C   C11       1.0  0.73400  0.60800  0.75000  1.0000
  C   C12       1.0  0.93800  0.85100  0.75000  1.0000
  H   H1        1.0  0.35400  0.17400  0.25000  1.0000
  H   H2        1.0  0.82600  0.18000  0.25000  1.0000
  H   H3        1.0  0.52400  0.21000  0.25000  1.0000
  H   H4        1.0  0.79000  0.31500  0.25000  1.0000
  H   H5        1.0  0.68500  0.47600  0.25000  1.0000
  H   H6        1.0  0.82000  0.64600  0.25000  1.0000
  H   H7        1.0  0.17400  0.35400  0.75000  1.0000
  H   H8        1.0  0.21000  0.52400  0.75000  1.0000
  H   H9        1.0  0.47600  0.68500  0.75000  1.0000
  H   H10       1.0  0.31500  0.79000  0.75000  1.0000
  H   H11       1.0  0.64600  0.82000  0.75000  1.0000
  H   H12       1.0  0.18000  0.82600  0.75000  1.0000
  N   N1        1.0  0.15600  0.06490  0.25000  1.0000
  N   N2        1.0  0.93500  0.09110  0.25000  1.0000
  N   N3        1.0  0.18300  0.30200  0.25000  1.0000
  N   N4        1.0  0.08700  0.48400  0.25000  1.0000
  N   N5        1.0  0.51600  0.60300  0.25000  1.0000
  N   N6        1.0  0.12000  0.81700  0.25000  1.0000
  N   N7        1.0  0.90900  0.84400  0.25000  1.0000
  N   N8        1.0  0.69800  0.88000  0.25000  1.0000
  N   N9        1.0  0.39700  0.91300  0.25000  1.0000
  N   N10       1.0  0.48400  0.08700  0.75000  1.0000
  N   N11       1.0  0.81700  0.12000  0.75000  1.0000
  N   N12       1.0  0.06490  0.15600  0.75000  1.0000
  N   N13       1.0  0.30200  0.18300  0.75000  1.0000
  N   N14       1.0  0.91300  0.39700  0.75000  1.0000
  N   N15       1.0  0.60300  0.51600  0.75000  1.0000
  N   N16       1.0  0.88000  0.69800  0.75000  1.0000
  N   N17       1.0  0.84400  0.90900  0.75000  1.0000
  N   N18       1.0  0.09110  0.93500  0.75000  1.0000
  Na  Na1       1.0  0.59600  0.00000  0.00000  1.0000
  Na  Na2       1.0  0.40400  0.40400  0.00000  1.0000
  Na  Na3       1.0  0.00000  0.59600  0.00000  1.0000
  Na  Na4       1.0  0.59600  0.00000  0.50000  1.0000
  Na  Na5       1.0  0.40400  0.40400  0.50000  1.0000
  Na  Na6       1.0  0.00000  0.59600  0.50000  1.0000
  O   O1        1.0  0.74000  0.20400  0.25000  1.0000
  O   O2        1.0  0.46400  0.26000  0.25000  1.0000
  O   O3        1.0  0.79600  0.53600  0.25000  1.0000
  O   O4        1.0  0.26000  0.46400  0.75000  1.0000
  O   O5        1.0  0.20400  0.74000  0.75000  1.0000
  O   O6        1.0  0.53600  0.79600  0.75000  1.0000
