data_image0
_chemical_formula_structural       C4H12K4O26S2U2
_chemical_formula_sum              "C4 H12 K4 O26 S2 U2"
_cell_length_a       5.58247
_cell_length_b       9.4226
_cell_length_c       11.6075
_cell_angle_alpha    88.9713
_cell_angle_beta     84.7045
_cell_angle_gamma    80.2845

_space_group_name_H-M_alt    "P 1"
_space_group_IT_number       1

loop_
  _space_group_symop_operation_xyz
  'x, y, z'

loop_
  _atom_site_type_symbol
  _atom_site_label
  _atom_site_symmetry_multiplicity
  _atom_site_fract_x
  _atom_site_fract_y
  _atom_site_fract_z
  _atom_site_occupancy
  C   C1        1.0  0.50300  0.45900  0.05740  1.0000
  C   C2        1.0  0.02660  0.01860  0.06110  1.0000
  C   C3        1.0  0.97300  0.98100  0.93900  1.0000
  C   C4        1.0  0.49700  0.54100  0.94300  1.0000
  H   H1        1.0  0.01510  0.26600  0.19300  1.0000
  H   H2        1.0  0.46500  0.23400  0.19800  1.0000
  H   H3        1.0  0.80600  0.39600  0.22000  1.0000
  H   H4        1.0  0.15700  0.95300  0.27200  1.0000
  H   H5        1.0  0.35300  0.14000  0.29500  1.0000
  H   H6        1.0  0.37700  0.94000  0.35100  1.0000
  H   H7        1.0  0.62300  0.06030  0.64900  1.0000
  H   H8        1.0  0.64700  0.86000  0.70500  1.0000
  H   H9        1.0  0.84300  0.04690  0.72800  1.0000
  H   H10       1.0  0.19400  0.60400  0.78000  1.0000
  H   H11       1.0  0.53500  0.76600  0.80200  1.0000
  H   H12       1.0  0.98500  0.73400  0.80700  1.0000
  K   K1        1.0  0.25700  0.48300  0.35400  1.0000
  K   K2        1.0  0.79600  0.14800  0.43000  1.0000
  K   K3        1.0  0.20400  0.85200  0.57000  1.0000
  K   K4        1.0  0.74300  0.51700  0.64600  1.0000
  O   O1        1.0  0.05530  0.62600  0.06010  1.0000
  O   O2        1.0  0.42900  0.34000  0.06150  1.0000
  O   O3        1.0  0.13400  0.12500  0.07060  1.0000
  O   O4        1.0  0.58300  0.51800  0.14000  1.0000
  O   O5        1.0  0.48300  0.84500  0.14200  1.0000
  O   O6        1.0  0.96000  0.94000  0.14300  1.0000
  O   O7        1.0  0.94600  0.33700  0.25300  1.0000
  O   O8        1.0  0.47000  0.20800  0.28000  1.0000
  O   O9        1.0  0.85300  0.67900  0.28700  1.0000
  O   O10       1.0  0.21000  0.99200  0.34200  1.0000
  O   O11       1.0  0.65400  0.88500  0.40500  1.0000
  O   O12       1.0  0.53100  0.65100  0.43900  1.0000
  O   O13       1.0  0.93200  0.68700  0.48500  1.0000
  O   O14       1.0  0.06760  0.31300  0.51500  1.0000
  O   O15       1.0  0.46900  0.34900  0.56100  1.0000
  O   O16       1.0  0.34600  0.11500  0.59500  1.0000
  O   O17       1.0  0.79000  0.00840  0.65800  1.0000
  O   O18       1.0  0.14700  0.32100  0.71300  1.0000
  O   O19       1.0  0.53000  0.79200  0.72000  1.0000
  O   O20       1.0  0.05390  0.66300  0.74700  1.0000
  O   O21       1.0  0.04020  0.06010  0.85700  1.0000
  O   O22       1.0  0.51700  0.15500  0.85800  1.0000
  O   O23       1.0  0.41700  0.48200  0.86000  1.0000
  O   O24       1.0  0.86600  0.87500  0.92900  1.0000
  O   O25       1.0  0.57100  0.66000  0.93900  1.0000
  O   O26       1.0  0.94500  0.37400  0.94000  1.0000
  S   S1        1.0  0.73800  0.72800  0.40800  1.0000
  S   S2        1.0  0.26200  0.27200  0.59200  1.0000
  U   U1        1.0  0.76900  0.73500  0.10200  1.0000
  U   U2        1.0  0.23100  0.26500  0.89800  1.0000
