data_image0
_chemical_formula_structural       C8H16Li4Na4O20
_chemical_formula_sum              "C8 H16 Li4 Na4 O20"
_cell_length_a       6.6958
_cell_length_b       8.06879
_cell_length_c       10.271
_cell_angle_alpha    111.306
_cell_angle_beta     98.641
_cell_angle_gamma    90.7832

_space_group_name_H-M_alt    "P 1"
_space_group_IT_number       1

loop_
  _space_group_symop_operation_xyz
  'x, y, z'

loop_
  _atom_site_type_symbol
  _atom_site_label
  _atom_site_symmetry_multiplicity
  _atom_site_fract_x
  _atom_site_fract_y
  _atom_site_fract_z
  _atom_site_occupancy
  C   C1        1.0  0.27900  0.75600  0.06640  1.0000
  C   C2        1.0  0.78000  0.90100  0.09720  1.0000
  C   C3        1.0  0.08570  0.27000  0.43600  1.0000
  C   C4        1.0  0.61700  0.28700  0.44400  1.0000
  C   C5        1.0  0.38300  0.71300  0.55600  1.0000
  C   C6        1.0  0.91400  0.73000  0.56400  1.0000
  C   C7        1.0  0.22000  0.09880  0.90300  1.0000
  C   C8        1.0  0.72100  0.24400  0.93400  1.0000
  H   H1        1.0  0.73000  0.20900  0.02940  1.0000
  H   H2        1.0  0.80400  0.04930  0.14100  1.0000
  H   H3        1.0  0.13600  0.52700  0.16400  1.0000
  H   H4        1.0  0.44600  0.52800  0.16800  1.0000
  H   H5        1.0  0.06930  0.43100  0.26400  1.0000
  H   H6        1.0  0.56400  0.43900  0.27100  1.0000
  H   H7        1.0  0.33600  0.57600  0.47900  1.0000
  H   H8        1.0  0.97700  0.60900  0.49600  1.0000
  H   H9        1.0  0.02290  0.39100  0.50400  1.0000
  H   H10       1.0  0.66400  0.42400  0.52100  1.0000
  H   H11       1.0  0.43600  0.56100  0.72900  1.0000
  H   H12       1.0  0.93100  0.56900  0.73600  1.0000
  H   H13       1.0  0.55400  0.47200  0.83200  1.0000
  H   H14       1.0  0.86400  0.47300  0.83600  1.0000
  H   H15       1.0  0.19600  0.95100  0.85900  1.0000
  H   H16       1.0  0.27000  0.79100  0.97100  1.0000
  Li  Li1       1.0  0.78500  0.57200  0.14600  1.0000
  Li  Li2       1.0  0.31100  0.13100  0.20400  1.0000
  Li  Li3       1.0  0.68900  0.86900  0.79600  1.0000
  Li  Li4       1.0  0.21500  0.42800  0.85400  1.0000
  Na  Na1       1.0  0.09640  0.85200  0.35100  1.0000
  Na  Na2       1.0  0.58900  0.86000  0.35500  1.0000
  Na  Na3       1.0  0.41100  0.14000  0.64500  1.0000
  Na  Na4       1.0  0.90400  0.14800  0.64900  1.0000
  O   O1        1.0  0.26700  0.17700  0.03460  1.0000
  O   O2        1.0  0.26500  0.59100  0.04670  1.0000
  O   O3        1.0  0.30400  0.88200  0.18600  1.0000
  O   O4        1.0  0.80400  0.82600  0.18800  1.0000
  O   O5        1.0  0.04640  0.53500  0.23400  1.0000
  O   O6        1.0  0.56800  0.54400  0.24000  1.0000
  O   O7        1.0  0.11200  0.26300  0.31400  1.0000
  O   O8        1.0  0.56000  0.26800  0.31500  1.0000
  O   O9        1.0  0.12400  0.15100  0.48700  1.0000
  O   O10       1.0  0.62200  0.16200  0.49100  1.0000
  O   O11       1.0  0.37800  0.83800  0.50900  1.0000
  O   O12       1.0  0.87600  0.84900  0.51300  1.0000
  O   O13       1.0  0.44000  0.73200  0.68500  1.0000
  O   O14       1.0  0.88800  0.73700  0.68600  1.0000
  O   O15       1.0  0.43200  0.45600  0.76000  1.0000
  O   O16       1.0  0.95400  0.46500  0.76600  1.0000
  O   O17       1.0  0.19600  0.17400  0.81200  1.0000
  O   O18       1.0  0.69600  0.11800  0.81400  1.0000
  O   O19       1.0  0.73500  0.40900  0.95300  1.0000
  O   O20       1.0  0.73300  0.82300  0.96500  1.0000
