data_image0
_chemical_formula_structural       C8H16K2Lu2O24
_chemical_formula_sum              "C8 H16 K2 Lu2 O24"
_cell_length_a       8.5091
_cell_length_b       8.96182
_cell_length_c       8.96182
_cell_angle_alpha    103.025
_cell_angle_beta     118.343
_cell_angle_gamma    61.6575

_space_group_name_H-M_alt    "P 1"
_space_group_IT_number       1

loop_
  _space_group_symop_operation_xyz
  'x, y, z'

loop_
  _atom_site_type_symbol
  _atom_site_label
  _atom_site_symmetry_multiplicity
  _atom_site_fract_x
  _atom_site_fract_y
  _atom_site_fract_z
  _atom_site_occupancy
  C   C1        1.0  0.60800  0.97200  0.02000  1.0000
  C   C2        1.0  0.42000  0.52000  0.02780  1.0000
  C   C3        1.0  0.41200  0.98000  0.47200  1.0000
  C   C4        1.0  0.06030  0.52800  0.48000  1.0000
  C   C5        1.0  0.94000  0.47200  0.52000  1.0000
  C   C6        1.0  0.58800  0.02000  0.52800  1.0000
  C   C7        1.0  0.58000  0.48000  0.97200  1.0000
  C   C8        1.0  0.39200  0.02780  0.98000  1.0000
  H   H1        1.0  0.23400  0.40300  0.08910  1.0000
  H   H2        1.0  0.14500  0.08910  0.09690  1.0000
  H   H3        1.0  0.98400  0.17300  0.17100  1.0000
  H   H4        1.0  0.15800  0.32900  0.17300  1.0000
  H   H5        1.0  0.81400  0.17100  0.32700  1.0000
  H   H6        1.0  0.48700  0.32700  0.32900  1.0000
  H   H7        1.0  0.63700  0.41100  0.40300  1.0000
  H   H8        1.0  0.04770  0.09690  0.41100  1.0000
  H   H9        1.0  0.95200  0.90300  0.58900  1.0000
  H   H10       1.0  0.36300  0.58900  0.59700  1.0000
  H   H11       1.0  0.51300  0.67300  0.67100  1.0000
  H   H12       1.0  0.18600  0.82900  0.67300  1.0000
  H   H13       1.0  0.84200  0.67100  0.82700  1.0000
  H   H14       1.0  0.01560  0.82700  0.82900  1.0000
  H   H15       1.0  0.85500  0.91100  0.90300  1.0000
  H   H16       1.0  0.76600  0.59700  0.91100  1.0000
  K   K1        1.0  0.12500  0.75000  0.25000  1.0000
  K   K2        1.0  0.87500  0.25000  0.75000  1.0000
  Lu  Lu1       1.0  0.62500  0.75000  0.25000  1.0000
  Lu  Lu2       1.0  0.37500  0.25000  0.75000  1.0000
  O   O1        1.0  0.68900  0.55800  0.04950  1.0000
  O   O2        1.0  0.36000  0.95000  0.05780  1.0000
  O   O3        1.0  0.03900  0.19800  0.10700  1.0000
  O   O4        1.0  0.73500  0.85500  0.12500  1.0000
  O   O5        1.0  0.41000  0.62500  0.14500  1.0000
  O   O6        1.0  0.23700  0.39300  0.19800  1.0000
  O   O7        1.0  0.93200  0.10700  0.30200  1.0000
  O   O8        1.0  0.39000  0.87500  0.35500  1.0000
  O   O9        1.0  0.96400  0.64500  0.37500  1.0000
  O   O10       1.0  0.63100  0.30200  0.39300  1.0000
  O   O11       1.0  0.75300  0.55000  0.44200  1.0000
  O   O12       1.0  0.69800  0.94200  0.45000  1.0000
  O   O13       1.0  0.30200  0.05780  0.55000  1.0000
  O   O14       1.0  0.24700  0.45000  0.55800  1.0000
  O   O15       1.0  0.36900  0.69800  0.60700  1.0000
  O   O16       1.0  0.03590  0.35500  0.62500  1.0000
  O   O17       1.0  0.61000  0.12500  0.64500  1.0000
  O   O18       1.0  0.06760  0.89300  0.69800  1.0000
  O   O19       1.0  0.76300  0.60700  0.80200  1.0000
  O   O20       1.0  0.59000  0.37500  0.85500  1.0000
  O   O21       1.0  0.26500  0.14500  0.87500  1.0000
  O   O22       1.0  0.96100  0.80200  0.89300  1.0000
  O   O23       1.0  0.64000  0.04950  0.94200  1.0000
  O   O24       1.0  0.31100  0.44200  0.95000  1.0000
