data_image0
_chemical_formula_structural       C8H28N4O8S4
_chemical_formula_sum              "C8 H28 N4 O8 S4"
_cell_length_a       5.87029
_cell_length_b       6.09728
_cell_length_c       12.6052
_cell_angle_alpha    97.5292
_cell_angle_beta     103.214
_cell_angle_gamma    90.4149

_space_group_name_H-M_alt    "P 1"
_space_group_IT_number       1

loop_
  _space_group_symop_operation_xyz
  'x, y, z'

loop_
  _atom_site_type_symbol
  _atom_site_label
  _atom_site_symmetry_multiplicity
  _atom_site_fract_x
  _atom_site_fract_y
  _atom_site_fract_z
  _atom_site_occupancy
  C   C1        1.0  0.31200  0.68500  0.06520  1.0000
  C   C2        1.0  0.85600  0.00581  0.16000  1.0000
  C   C3        1.0  0.96900  0.20100  0.35100  1.0000
  C   C4        1.0  0.29300  0.71100  0.42700  1.0000
  C   C5        1.0  0.70700  0.28900  0.57300  1.0000
  C   C6        1.0  0.03130  0.79900  0.64900  1.0000
  C   C7        1.0  0.14400  0.99400  0.84000  1.0000
  C   C8        1.0  0.68800  0.31500  0.93500  1.0000
  H   H1        1.0  0.83000  0.35200  0.00871  1.0000
  H   H2        1.0  0.48200  0.66900  0.04430  1.0000
  H   H3        1.0  0.72000  0.99800  0.08360  1.0000
  H   H4        1.0  0.29900  0.85100  0.10800  1.0000
  H   H5        1.0  0.02610  0.04710  0.14500  1.0000
  H   H6        1.0  0.86100  0.84800  0.19200  1.0000
  H   H7        1.0  0.80500  0.33300  0.21300  1.0000
  H   H8        1.0  0.63500  0.15200  0.25200  1.0000
  H   H9        1.0  0.14700  0.21400  0.33900  1.0000
  H   H10       1.0  0.11900  0.70100  0.37100  1.0000
  H   H11       1.0  0.94600  0.05340  0.38800  1.0000
  H   H12       1.0  0.92800  0.34900  0.40100  1.0000
  H   H13       1.0  0.32600  0.55800  0.46400  1.0000
  H   H14       1.0  0.31200  0.85600  0.49000  1.0000
  H   H15       1.0  0.68800  0.14400  0.51000  1.0000
  H   H16       1.0  0.67400  0.44200  0.53600  1.0000
  H   H17       1.0  0.07170  0.65100  0.59900  1.0000
  H   H18       1.0  0.05390  0.94700  0.61200  1.0000
  H   H19       1.0  0.88100  0.29900  0.62900  1.0000
  H   H20       1.0  0.85300  0.78600  0.66100  1.0000
  H   H21       1.0  0.36500  0.84800  0.74800  1.0000
  H   H22       1.0  0.19500  0.66700  0.78700  1.0000
  H   H23       1.0  0.13900  0.15200  0.80800  1.0000
  H   H24       1.0  0.97400  0.95300  0.85500  1.0000
  H   H25       1.0  0.70100  0.14900  0.89200  1.0000
  H   H26       1.0  0.28000  0.00210  0.91600  1.0000
  H   H27       1.0  0.51800  0.33100  0.95600  1.0000
  H   H28       1.0  0.17000  0.64800  0.99100  1.0000
  N   N1        1.0  0.80200  0.18200  0.24200  1.0000
  N   N2        1.0  0.49000  0.53500  0.26100  1.0000
  N   N3        1.0  0.51000  0.46500  0.73900  1.0000
  N   N4        1.0  0.19800  0.81800  0.75800  1.0000
  O   O1        1.0  0.32200  0.27100  0.09790  1.0000
  O   O2        1.0  0.04880  0.51600  0.17600  1.0000
  O   O3        1.0  0.44900  0.95400  0.30300  1.0000
  O   O4        1.0  0.73600  0.74700  0.42500  1.0000
  O   O5        1.0  0.26400  0.25300  0.57500  1.0000
  O   O6        1.0  0.55100  0.04590  0.69700  1.0000
  O   O7        1.0  0.95100  0.48400  0.82400  1.0000
  O   O8        1.0  0.67800  0.72900  0.90200  1.0000
  S   S1        1.0  0.28200  0.48900  0.15300  1.0000
  S   S2        1.0  0.50500  0.74800  0.35100  1.0000
  S   S3        1.0  0.49500  0.25200  0.64900  1.0000
  S   S4        1.0  0.71800  0.51100  0.84700  1.0000
