data_image0
_chemical_formula_structural       C4H8Mn8O28P4
_chemical_formula_sum              "C4 H8 Mn8 O28 P4"
_cell_length_a       10.1177
_cell_length_b       6.46548
_cell_length_c       10.0105
_cell_angle_alpha    90
_cell_angle_beta     116.389
_cell_angle_gamma    90

_space_group_name_H-M_alt    "P 1"
_space_group_IT_number       1

loop_
  _space_group_symop_operation_xyz
  'x, y, z'

loop_
  _atom_site_type_symbol
  _atom_site_label
  _atom_site_symmetry_multiplicity
  _atom_site_fract_x
  _atom_site_fract_y
  _atom_site_fract_z
  _atom_site_occupancy
  C   C1        1.0  0.95900  0.95400  0.04170  1.0000
  C   C2        1.0  0.04140  0.45400  0.45800  1.0000
  C   C3        1.0  0.95900  0.54600  0.54200  1.0000
  C   C4        1.0  0.04140  0.04620  0.95800  1.0000
  H   H1        1.0  0.23600  0.47700  0.22500  1.0000
  H   H2        1.0  0.88100  0.88100  0.22600  1.0000
  H   H3        1.0  0.11900  0.38100  0.27400  1.0000
  H   H4        1.0  0.76400  0.97700  0.27500  1.0000
  H   H5        1.0  0.23600  0.02310  0.72500  1.0000
  H   H6        1.0  0.88100  0.61900  0.72600  1.0000
  H   H7        1.0  0.11900  0.11900  0.77400  1.0000
  H   H8        1.0  0.76400  0.52300  0.77500  1.0000
  Mn  Mn1       1.0  0.38200  0.14500  0.02320  1.0000
  Mn  Mn2       1.0  0.73600  0.48100  0.23100  1.0000
  Mn  Mn3       1.0  0.26400  0.98100  0.26900  1.0000
  Mn  Mn4       1.0  0.61800  0.64500  0.47700  1.0000
  Mn  Mn5       1.0  0.38200  0.35500  0.52300  1.0000
  Mn  Mn6       1.0  0.73600  0.01850  0.73100  1.0000
  Mn  Mn7       1.0  0.26400  0.51900  0.76900  1.0000
  Mn  Mn8       1.0  0.61800  0.85500  0.97700  1.0000
  O   O1        1.0  0.66500  0.53800  0.00294  1.0000
  O   O2        1.0  0.41700  0.82400  0.01120  1.0000
  O   O3        1.0  0.17400  0.09590  0.03820  1.0000
  O   O4        1.0  0.27800  0.70100  0.16200  1.0000
  O   O5        1.0  0.02680  0.93400  0.18200  1.0000
  O   O6        1.0  0.78200  0.85800  0.22100  1.0000
  O   O7        1.0  0.54100  0.59500  0.24000  1.0000
  O   O8        1.0  0.45900  0.09460  0.26000  1.0000
  O   O9        1.0  0.21800  0.35800  0.27900  1.0000
  O   O10       1.0  0.97300  0.43400  0.31800  1.0000
  O   O11       1.0  0.72200  0.20100  0.33800  1.0000
  O   O12       1.0  0.82600  0.59600  0.46200  1.0000
  O   O13       1.0  0.58300  0.32400  0.48900  1.0000
  O   O14       1.0  0.33500  0.03840  0.49700  1.0000
  O   O15       1.0  0.66500  0.96200  0.50300  1.0000
  O   O16       1.0  0.41700  0.67600  0.51100  1.0000
  O   O17       1.0  0.17400  0.40400  0.53800  1.0000
  O   O18       1.0  0.27800  0.79900  0.66200  1.0000
  O   O19       1.0  0.02680  0.56600  0.68200  1.0000
  O   O20       1.0  0.78200  0.64200  0.72100  1.0000
  O   O21       1.0  0.54100  0.90500  0.74000  1.0000
  O   O22       1.0  0.45900  0.40500  0.76000  1.0000
  O   O23       1.0  0.21800  0.14200  0.77900  1.0000
  O   O24       1.0  0.97300  0.06580  0.81800  1.0000
  O   O25       1.0  0.72200  0.29900  0.83800  1.0000
  O   O26       1.0  0.82600  0.90400  0.96200  1.0000
  O   O27       1.0  0.58300  0.17600  0.98900  1.0000
  O   O28       1.0  0.33500  0.46200  0.99700  1.0000
  P   P1        1.0  0.39200  0.64900  0.10500  1.0000
  P   P2        1.0  0.60800  0.14900  0.39500  1.0000
  P   P3        1.0  0.39200  0.85100  0.60500  1.0000
  P   P4        1.0  0.60800  0.35100  0.89500  1.0000
