data_image0
_chemical_formula_structural       C14H28MnN6O4S2
_chemical_formula_sum              "C14 H28 Mn1 N6 O4 S2"
_cell_length_a       7.17246
_cell_length_b       9.32288
_cell_length_c       9.50734
_cell_angle_alpha    81.9605
_cell_angle_beta     69.0808
_cell_angle_gamma    68.1213

_space_group_name_H-M_alt    "P 1"
_space_group_IT_number       1

loop_
  _space_group_symop_operation_xyz
  'x, y, z'

loop_
  _atom_site_type_symbol
  _atom_site_label
  _atom_site_symmetry_multiplicity
  _atom_site_fract_x
  _atom_site_fract_y
  _atom_site_fract_z
  _atom_site_occupancy
  C   C1        1.0  0.43600  0.75400  0.00201  1.0000
  C   C2        1.0  0.20000  0.44200  0.12500  1.0000
  C   C3        1.0  0.48500  0.37400  0.22700  1.0000
  C   C4        1.0  0.72600  0.73400  0.25200  1.0000
  C   C5        1.0  0.11900  0.05180  0.26600  1.0000
  C   C6        1.0  0.29900  0.08300  0.44000  1.0000
  C   C7        1.0  0.94400  0.25300  0.45000  1.0000
  C   C8        1.0  0.05550  0.74700  0.55000  1.0000
  C   C9        1.0  0.70100  0.91700  0.56000  1.0000
  C   C10       1.0  0.88100  0.94800  0.73400  1.0000
  C   C11       1.0  0.27400  0.26600  0.74800  1.0000
  C   C12       1.0  0.51500  0.62600  0.77300  1.0000
  C   C13       1.0  0.80000  0.55800  0.87500  1.0000
  C   C14       1.0  0.56400  0.24600  0.99800  1.0000
  H   H1        1.0  0.17600  0.41300  0.02680  1.0000
  H   H2        1.0  0.61300  0.12800  0.04290  1.0000
  H   H3        1.0  0.29200  0.72600  0.06320  1.0000
  H   H4        1.0  0.51900  0.74900  0.08020  1.0000
  H   H5        1.0  0.16700  0.56700  0.12700  1.0000
  H   H6        1.0  0.10300  0.13000  0.17000  1.0000
  H   H7        1.0  0.65300  0.30400  0.21500  1.0000
  H   H8        1.0  0.08780  0.41500  0.22900  1.0000
  H   H9        1.0  0.27000  0.95500  0.23200  1.0000
  H   H10       1.0  0.98600  0.00855  0.30300  1.0000
  H   H11       1.0  0.42100  0.98300  0.37400  1.0000
  H   H12       1.0  0.36400  0.17500  0.42500  1.0000
  H   H13       1.0  0.74500  0.94900  0.44000  1.0000
  H   H14       1.0  0.04660  0.68800  0.46000  1.0000
  H   H15       1.0  0.95300  0.31200  0.54000  1.0000
  H   H16       1.0  0.25500  0.05110  0.56000  1.0000
  H   H17       1.0  0.63600  0.82500  0.57500  1.0000
  H   H18       1.0  0.57900  0.01740  0.62600  1.0000
  H   H19       1.0  0.01410  0.99100  0.69700  1.0000
  H   H20       1.0  0.73000  0.04500  0.76800  1.0000
  H   H21       1.0  0.91200  0.58500  0.77100  1.0000
  H   H22       1.0  0.34700  0.69600  0.78500  1.0000
  H   H23       1.0  0.89700  0.87000  0.83000  1.0000
  H   H24       1.0  0.83300  0.43300  0.87300  1.0000
  H   H25       1.0  0.48100  0.25100  0.92000  1.0000
  H   H26       1.0  0.70800  0.27400  0.93700  1.0000
  H   H27       1.0  0.38700  0.87200  0.95700  1.0000
  H   H28       1.0  0.82400  0.58700  0.97300  1.0000
  Mn  Mn1       1.0  0.50000  0.50000  0.50000  1.0000
  N   N1        1.0  0.41900  0.35600  0.11900  1.0000
  N   N2        1.0  0.64600  0.64900  0.33300  1.0000
  N   N3        1.0  0.11600  0.13200  0.38800  1.0000
  N   N4        1.0  0.88400  0.86800  0.61200  1.0000
  N   N5        1.0  0.35400  0.35100  0.66700  1.0000
  N   N6        1.0  0.58100  0.64400  0.88100  1.0000
  O   O1        1.0  0.36600  0.46200  0.33800  1.0000
  O   O2        1.0  0.78300  0.30000  0.40900  1.0000
  O   O3        1.0  0.21700  0.70000  0.59100  1.0000
  O   O4        1.0  0.63400  0.53800  0.66200  1.0000
  S   S1        1.0  0.83200  0.85200  0.14000  1.0000
  S   S2        1.0  0.16800  0.14800  0.86000  1.0000
