data_image0
_chemical_formula_structural       B16C8H32
_chemical_formula_sum              "B16 C8 H32"
_cell_length_a       8.94505
_cell_length_b       10.5421
_cell_length_c       5.82382
_cell_angle_alpha    90
_cell_angle_beta     95.5091
_cell_angle_gamma    90

_space_group_name_H-M_alt    "P 1"
_space_group_IT_number       1

loop_
  _space_group_symop_operation_xyz
  'x, y, z'

loop_
  _atom_site_type_symbol
  _atom_site_label
  _atom_site_symmetry_multiplicity
  _atom_site_fract_x
  _atom_site_fract_y
  _atom_site_fract_z
  _atom_site_occupancy
  B   B1        1.0  0.66900  0.30800  0.03410  1.0000
  B   B2        1.0  0.20900  0.62100  0.14000  1.0000
  B   B3        1.0  0.79100  0.43000  0.15100  1.0000
  B   B4        1.0  0.40400  0.62300  0.23100  1.0000
  B   B5        1.0  0.09570  0.12300  0.26900  1.0000
  B   B6        1.0  0.70900  0.93000  0.34900  1.0000
  B   B7        1.0  0.29100  0.12100  0.36000  1.0000
  B   B8        1.0  0.83100  0.80800  0.46600  1.0000
  B   B9        1.0  0.16900  0.19200  0.53400  1.0000
  B   B10       1.0  0.70900  0.87900  0.64000  1.0000
  B   B11       1.0  0.29100  0.06990  0.65100  1.0000
  B   B12       1.0  0.90400  0.87700  0.73100  1.0000
  B   B13       1.0  0.59600  0.37700  0.76900  1.0000
  B   B14       1.0  0.20900  0.57000  0.84900  1.0000
  B   B15       1.0  0.79100  0.37900  0.86000  1.0000
  B   B16       1.0  0.33100  0.69200  0.96600  1.0000
  C   C1        1.0  0.22400  0.46700  0.03500  1.0000
  C   C2        1.0  0.32500  0.49500  0.23400  1.0000
  C   C3        1.0  0.17500  0.99500  0.26600  1.0000
  C   C4        1.0  0.27600  0.96700  0.46500  1.0000
  C   C5        1.0  0.72400  0.03250  0.53500  1.0000
  C   C6        1.0  0.82500  0.00500  0.73400  1.0000
  C   C7        1.0  0.67500  0.50500  0.76600  1.0000
  C   C8        1.0  0.77600  0.53300  0.96500  1.0000
  H   H1        1.0  0.46800  0.64700  0.04060  1.0000
  H   H2        1.0  0.14000  0.39300  0.04620  1.0000
  H   H3        1.0  0.65900  0.20200  0.09760  1.0000
  H   H4        1.0  0.18500  0.94100  0.10900  1.0000
  H   H5        1.0  0.02790  0.17800  0.11300  1.0000
  H   H6        1.0  0.61700  0.91900  0.19000  1.0000
  H   H7        1.0  0.66100  0.38800  0.21300  1.0000
  H   H8        1.0  0.10900  0.66500  0.23400  1.0000
  H   H9        1.0  0.39100  0.16500  0.26600  1.0000
  H   H10       1.0  0.83900  0.88800  0.28700  1.0000
  H   H11       1.0  0.88300  0.41900  0.31000  1.0000
  H   H12       1.0  0.47200  0.67800  0.38700  1.0000
  H   H13       1.0  0.31500  0.44100  0.39100  1.0000
  H   H14       1.0  0.84100  0.70200  0.40200  1.0000
  H   H15       1.0  0.36000  0.89300  0.45400  1.0000
  H   H16       1.0  0.03180  0.14700  0.45900  1.0000
  H   H17       1.0  0.96800  0.85300  0.54100  1.0000
  H   H18       1.0  0.64000  0.10700  0.54600  1.0000
  H   H19       1.0  0.15900  0.29800  0.59800  1.0000
  H   H20       1.0  0.68500  0.55900  0.60900  1.0000
  H   H21       1.0  0.52800  0.32200  0.61300  1.0000
  H   H22       1.0  0.11700  0.58100  0.69000  1.0000
  H   H23       1.0  0.16100  0.11200  0.71300  1.0000
  H   H24       1.0  0.60900  0.83500  0.73400  1.0000
  H   H25       1.0  0.89100  0.33500  0.76600  1.0000
  H   H26       1.0  0.33900  0.61200  0.78700  1.0000
  H   H27       1.0  0.38300  0.08140  0.81000  1.0000
  H   H28       1.0  0.97200  0.82200  0.88700  1.0000
  H   H29       1.0  0.81500  0.05910  0.89100  1.0000
  H   H30       1.0  0.34100  0.79800  0.90200  1.0000
  H   H31       1.0  0.86000  0.60700  0.95400  1.0000
  H   H32       1.0  0.53200  0.35300  0.95900  1.0000
