data_image0
_chemical_formula_structural       Ba4C12H12O28
_chemical_formula_sum              "Ba4 C12 H12 O28"
_cell_length_a       5.63566
_cell_length_b       17.8591
_cell_length_c       6.46634
_cell_angle_alpha    90
_cell_angle_beta     97.822
_cell_angle_gamma    90

_space_group_name_H-M_alt    "P 1"
_space_group_IT_number       1

loop_
  _space_group_symop_operation_xyz
  'x, y, z'

loop_
  _atom_site_type_symbol
  _atom_site_label
  _atom_site_symmetry_multiplicity
  _atom_site_fract_x
  _atom_site_fract_y
  _atom_site_fract_z
  _atom_site_occupancy
  Ba  Ba1       1.0  0.27700  0.58400  0.11700  1.0000
  Ba  Ba2       1.0  0.22300  0.08430  0.38300  1.0000
  Ba  Ba3       1.0  0.77700  0.91600  0.61700  1.0000
  Ba  Ba4       1.0  0.72300  0.41600  0.88300  1.0000
  C   C1        1.0  0.60000  0.98500  0.08370  1.0000
  C   C2        1.0  0.06640  0.26400  0.14700  1.0000
  C   C3        1.0  0.82100  0.22600  0.15900  1.0000
  C   C4        1.0  0.67900  0.72600  0.34100  1.0000
  C   C5        1.0  0.43400  0.76400  0.35300  1.0000
  C   C6        1.0  0.90000  0.48500  0.41600  1.0000
  C   C7        1.0  0.10000  0.51500  0.58400  1.0000
  C   C8        1.0  0.56600  0.23600  0.64700  1.0000
  C   C9        1.0  0.32100  0.27400  0.65900  1.0000
  C   C10       1.0  0.17900  0.77400  0.84100  1.0000
  C   C11       1.0  0.93400  0.73600  0.85300  1.0000
  C   C12       1.0  0.40000  0.01540  0.91600  1.0000
  H   H1        1.0  0.47300  0.25000  0.14500  1.0000
  H   H2        1.0  0.29400  0.39400  0.15900  1.0000
  H   H3        1.0  0.97500  0.93300  0.20300  1.0000
  H   H4        1.0  0.52500  0.43300  0.29700  1.0000
  H   H5        1.0  0.20600  0.89400  0.34100  1.0000
  H   H6        1.0  0.02730  0.75000  0.35500  1.0000
  H   H7        1.0  0.97300  0.25000  0.64500  1.0000
  H   H8        1.0  0.79400  0.10600  0.65900  1.0000
  H   H9        1.0  0.47500  0.56700  0.70300  1.0000
  H   H10       1.0  0.02520  0.06710  0.79700  1.0000
  H   H11       1.0  0.70600  0.60600  0.84100  1.0000
  H   H12       1.0  0.52700  0.75000  0.85500  1.0000
  O   O1        1.0  0.76200  0.94500  0.01800  1.0000
  O   O2        1.0  0.06900  0.33300  0.11700  1.0000
  O   O3        1.0  0.64200  0.27400  0.12500  1.0000
  O   O4        1.0  0.41100  0.43600  0.16300  1.0000
  O   O5        1.0  0.24600  0.22000  0.17100  1.0000
  O   O6        1.0  0.80300  0.15900  0.20000  1.0000
  O   O7        1.0  0.91100  0.50100  0.22800  1.0000
  O   O8        1.0  0.58900  0.00068  0.27200  1.0000
  O   O9        1.0  0.69700  0.65900  0.30000  1.0000
  O   O10       1.0  0.25400  0.72000  0.32900  1.0000
  O   O11       1.0  0.08890  0.93600  0.33700  1.0000
  O   O12       1.0  0.85800  0.77400  0.37500  1.0000
  O   O13       1.0  0.43100  0.83300  0.38300  1.0000
  O   O14       1.0  0.73800  0.44500  0.48200  1.0000
  O   O15       1.0  0.26200  0.55500  0.51800  1.0000
  O   O16       1.0  0.56900  0.16700  0.61700  1.0000
  O   O17       1.0  0.14200  0.22600  0.62500  1.0000
  O   O18       1.0  0.91100  0.06410  0.66300  1.0000
  O   O19       1.0  0.74600  0.28000  0.67100  1.0000
  O   O20       1.0  0.30300  0.34100  0.70000  1.0000
  O   O21       1.0  0.41100  0.99900  0.72800  1.0000
  O   O22       1.0  0.08940  0.49900  0.77200  1.0000
  O   O23       1.0  0.19700  0.84100  0.80000  1.0000
  O   O24       1.0  0.75400  0.78000  0.82900  1.0000
  O   O25       1.0  0.58900  0.56400  0.83700  1.0000
  O   O26       1.0  0.35800  0.72600  0.87500  1.0000
  O   O27       1.0  0.93100  0.66700  0.88300  1.0000
  O   O28       1.0  0.23800  0.05460  0.98200  1.0000
