data_image0
_chemical_formula_structural       C8H8Mo4O30Rb4
_chemical_formula_sum              "C8 H8 Mo4 O30 Rb4"
_cell_length_a       6.51409
_cell_length_b       14.1263
_cell_length_c       7.52465
_cell_angle_alpha    90
_cell_angle_beta     92.2153
_cell_angle_gamma    90

_space_group_name_H-M_alt    "P 1"
_space_group_IT_number       1

loop_
  _space_group_symop_operation_xyz
  'x, y, z'

loop_
  _atom_site_type_symbol
  _atom_site_label
  _atom_site_symmetry_multiplicity
  _atom_site_fract_x
  _atom_site_fract_y
  _atom_site_fract_z
  _atom_site_occupancy
  C   C1        1.0  0.25800  0.82000  0.46400  1.0000
  C   C2        1.0  0.75800  0.68000  0.46400  1.0000
  C   C3        1.0  0.24100  0.92800  0.49000  1.0000
  C   C4        1.0  0.74100  0.57200  0.49000  1.0000
  C   C5        1.0  0.25900  0.42800  0.51000  1.0000
  C   C6        1.0  0.75900  0.07190  0.51000  1.0000
  C   C7        1.0  0.24200  0.32000  0.53600  1.0000
  C   C8        1.0  0.74200  0.18000  0.53600  1.0000
  H   H1        1.0  0.75500  0.82000  0.26300  1.0000
  H   H2        1.0  0.25500  0.68000  0.26300  1.0000
  H   H3        1.0  0.25800  0.56400  0.28900  1.0000
  H   H4        1.0  0.75800  0.93600  0.28900  1.0000
  H   H5        1.0  0.74200  0.43600  0.71100  1.0000
  H   H6        1.0  0.24200  0.06400  0.71100  1.0000
  H   H7        1.0  0.24500  0.18000  0.73700  1.0000
  H   H8        1.0  0.74500  0.32000  0.73700  1.0000
  Mo  Mo1       1.0  0.11900  0.89100  0.10600  1.0000
  Mo  Mo2       1.0  0.61900  0.60900  0.10600  1.0000
  Mo  Mo3       1.0  0.38100  0.39100  0.89400  1.0000
  Mo  Mo4       1.0  0.88100  0.10900  0.89400  1.0000
  O   O1        1.0  0.00000  0.00000  0.00000  1.0000
  O   O2        1.0  0.50000  0.50000  0.00000  1.0000
  O   O3        1.0  0.95400  0.20000  0.03890  1.0000
  O   O4        1.0  0.45400  0.30000  0.03890  1.0000
  O   O5        1.0  0.37500  0.91100  0.06850  1.0000
  O   O6        1.0  0.87500  0.58900  0.06850  1.0000
  O   O7        1.0  0.30800  0.61900  0.21800  1.0000
  O   O8        1.0  0.80800  0.88100  0.21800  1.0000
  O   O9        1.0  0.18700  0.79100  0.30800  1.0000
  O   O10       1.0  0.68700  0.70900  0.30800  1.0000
  O   O11       1.0  0.15800  0.97200  0.35600  1.0000
  O   O12       1.0  0.65800  0.52800  0.35600  1.0000
  O   O13       1.0  0.19100  0.46400  0.36900  1.0000
  O   O14       1.0  0.69100  0.03610  0.36900  1.0000
  O   O15       1.0  0.16600  0.26800  0.42000  1.0000
  O   O16       1.0  0.66600  0.23200  0.42000  1.0000
  O   O17       1.0  0.33400  0.76800  0.58000  1.0000
  O   O18       1.0  0.83400  0.73200  0.58000  1.0000
  O   O19       1.0  0.30900  0.96400  0.63100  1.0000
  O   O20       1.0  0.80900  0.53600  0.63100  1.0000
  O   O21       1.0  0.34200  0.47200  0.64400  1.0000
  O   O22       1.0  0.84200  0.02810  0.64400  1.0000
  O   O23       1.0  0.81300  0.20900  0.69200  1.0000
  O   O24       1.0  0.31300  0.29100  0.69200  1.0000
  O   O25       1.0  0.19200  0.11900  0.78200  1.0000
  O   O26       1.0  0.69200  0.38100  0.78200  1.0000
  O   O27       1.0  0.12500  0.41100  0.93100  1.0000
  O   O28       1.0  0.62500  0.08880  0.93100  1.0000
  O   O29       1.0  0.04620  0.80000  0.96100  1.0000
  O   O30       1.0  0.54600  0.70000  0.96100  1.0000
  Rb  Rb1       1.0  0.35200  0.13200  0.19700  1.0000
  Rb  Rb2       1.0  0.85200  0.36800  0.19700  1.0000
  Rb  Rb3       1.0  0.14800  0.63200  0.80300  1.0000
  Rb  Rb4       1.0  0.64800  0.86800  0.80300  1.0000
