data_image0
_chemical_formula_structural       C4H16Ho8O28
_chemical_formula_sum              "C4 H16 Ho8 O28"
_cell_length_a       6.20785
_cell_length_b       5.93617
_cell_length_c       15.1889
_cell_angle_alpha    90
_cell_angle_beta     96.8444
_cell_angle_gamma    90

_space_group_name_H-M_alt    "P 1"
_space_group_IT_number       1

loop_
  _space_group_symop_operation_xyz
  'x, y, z'

loop_
  _atom_site_type_symbol
  _atom_site_label
  _atom_site_symmetry_multiplicity
  _atom_site_fract_x
  _atom_site_fract_y
  _atom_site_fract_z
  _atom_site_occupancy
  C   C1        1.0  0.09760  0.42000  0.11700  1.0000
  C   C2        1.0  0.90200  0.92000  0.38300  1.0000
  C   C3        1.0  0.09760  0.07960  0.61700  1.0000
  C   C4        1.0  0.90200  0.58000  0.88300  1.0000
  H   H1        1.0  0.18100  0.03000  0.05490  1.0000
  H   H2        1.0  0.77500  0.66900  0.07790  1.0000
  H   H3        1.0  0.82800  0.99100  0.19700  1.0000
  H   H4        1.0  0.83100  0.54500  0.21100  1.0000
  H   H5        1.0  0.16900  0.04530  0.28900  1.0000
  H   H6        1.0  0.17200  0.49100  0.30300  1.0000
  H   H7        1.0  0.22500  0.16900  0.42200  1.0000
  H   H8        1.0  0.81900  0.53000  0.44500  1.0000
  H   H9        1.0  0.18100  0.47000  0.55500  1.0000
  H   H10       1.0  0.77500  0.83100  0.57800  1.0000
  H   H11       1.0  0.82800  0.50900  0.69700  1.0000
  H   H12       1.0  0.83100  0.95500  0.71100  1.0000
  H   H13       1.0  0.16900  0.45500  0.78900  1.0000
  H   H14       1.0  0.17200  0.00949  0.80300  1.0000
  H   H15       1.0  0.22500  0.33100  0.92200  1.0000
  H   H16       1.0  0.81900  0.97000  0.94500  1.0000
  Ho  Ho1       1.0  0.59200  0.24600  0.06540  1.0000
  Ho  Ho2       1.0  0.41900  0.73800  0.18200  1.0000
  Ho  Ho3       1.0  0.58100  0.23800  0.31800  1.0000
  Ho  Ho4       1.0  0.40800  0.74600  0.43500  1.0000
  Ho  Ho5       1.0  0.59200  0.25400  0.56500  1.0000
  Ho  Ho6       1.0  0.41900  0.76200  0.68200  1.0000
  Ho  Ho7       1.0  0.58100  0.26200  0.81800  1.0000
  Ho  Ho8       1.0  0.40800  0.75400  0.93500  1.0000
  O   O1        1.0  0.32100  0.95300  0.05350  1.0000
  O   O2        1.0  0.62200  0.63200  0.05840  1.0000
  O   O3        1.0  0.96700  0.26800  0.08400  1.0000
  O   O4        1.0  0.30600  0.38400  0.12700  1.0000
  O   O5        1.0  0.03810  0.61700  0.14400  1.0000
  O   O6        1.0  0.67400  0.02410  0.19000  1.0000
  O   O7        1.0  0.69500  0.50300  0.23300  1.0000
  O   O8        1.0  0.30500  0.00345  0.26700  1.0000
  O   O9        1.0  0.32600  0.52400  0.31000  1.0000
  O   O10       1.0  0.96200  0.11700  0.35600  1.0000
  O   O11       1.0  0.69400  0.88400  0.37300  1.0000
  O   O12       1.0  0.03330  0.76800  0.41600  1.0000
  O   O13       1.0  0.37800  0.13200  0.44200  1.0000
  O   O14       1.0  0.67900  0.45300  0.44600  1.0000
  O   O15       1.0  0.32100  0.54700  0.55400  1.0000
  O   O16       1.0  0.62200  0.86800  0.55800  1.0000
  O   O17       1.0  0.96700  0.23200  0.58400  1.0000
  O   O18       1.0  0.30600  0.11600  0.62700  1.0000
  O   O19       1.0  0.03810  0.88300  0.64400  1.0000
  O   O20       1.0  0.67400  0.47600  0.69000  1.0000
  O   O21       1.0  0.69500  0.99700  0.73300  1.0000
  O   O22       1.0  0.30500  0.49700  0.76700  1.0000
  O   O23       1.0  0.32600  0.97600  0.81000  1.0000
  O   O24       1.0  0.96200  0.38300  0.85600  1.0000
  O   O25       1.0  0.69400  0.61600  0.87300  1.0000
  O   O26       1.0  0.03330  0.73200  0.91600  1.0000
  O   O27       1.0  0.37800  0.36800  0.94200  1.0000
  O   O28       1.0  0.67900  0.04720  0.94600  1.0000
