data_image0
_chemical_formula_structural       C8H8Na10O28Sc2
_chemical_formula_sum              "C8 H8 Na10 O28 Sc2"
_cell_length_a       7.33531
_cell_length_b       7.33531
_cell_length_c       11.4648
_cell_angle_alpha    90
_cell_angle_beta     90
_cell_angle_gamma    90

_space_group_name_H-M_alt    "P 1"
_space_group_IT_number       1

loop_
  _space_group_symop_operation_xyz
  'x, y, z'

loop_
  _atom_site_type_symbol
  _atom_site_label
  _atom_site_symmetry_multiplicity
  _atom_site_fract_x
  _atom_site_fract_y
  _atom_site_fract_z
  _atom_site_occupancy
  C   C1        1.0  0.71600  0.17900  0.08060  1.0000
  C   C2        1.0  0.28400  0.82100  0.08060  1.0000
  C   C3        1.0  0.21600  0.32100  0.41900  1.0000
  C   C4        1.0  0.78400  0.67900  0.41900  1.0000
  C   C5        1.0  0.67900  0.21600  0.58100  1.0000
  C   C6        1.0  0.32100  0.78400  0.58100  1.0000
  C   C7        1.0  0.17900  0.28400  0.91900  1.0000
  C   C8        1.0  0.82100  0.71600  0.91900  1.0000
  H   H1        1.0  0.06410  0.41400  0.11500  1.0000
  H   H2        1.0  0.93600  0.58600  0.11500  1.0000
  H   H3        1.0  0.56400  0.08600  0.38500  1.0000
  H   H4        1.0  0.43600  0.91400  0.38500  1.0000
  H   H5        1.0  0.08600  0.43600  0.61500  1.0000
  H   H6        1.0  0.91400  0.56400  0.61500  1.0000
  H   H7        1.0  0.58600  0.06410  0.88500  1.0000
  H   H8        1.0  0.41400  0.93600  0.88500  1.0000
  Na  Na1       1.0  0.50000  0.50000  0.00000  1.0000
  Na  Na2       1.0  0.31400  0.18000  0.20900  1.0000
  Na  Na3       1.0  0.68600  0.82000  0.20900  1.0000
  Na  Na4       1.0  0.81400  0.32000  0.29100  1.0000
  Na  Na5       1.0  0.18600  0.68000  0.29100  1.0000
  Na  Na6       1.0  0.00000  0.00000  0.50000  1.0000
  Na  Na7       1.0  0.32000  0.18600  0.70900  1.0000
  Na  Na8       1.0  0.68000  0.81400  0.70900  1.0000
  Na  Na9       1.0  0.82000  0.31400  0.79100  1.0000
  Na  Na10      1.0  0.18000  0.68600  0.79100  1.0000
  O   O1        1.0  0.16300  0.25200  0.03220  1.0000
  O   O2        1.0  0.83700  0.74800  0.03220  1.0000
  O   O3        1.0  0.58600  0.27300  0.12200  1.0000
  O   O4        1.0  0.41400  0.72700  0.12200  1.0000
  O   O5        1.0  0.83100  0.09130  0.14700  1.0000
  O   O6        1.0  0.16900  0.90900  0.14700  1.0000
  O   O7        1.0  0.00000  0.50000  0.16800  1.0000
  O   O8        1.0  0.50000  0.00000  0.33200  1.0000
  O   O9        1.0  0.33100  0.40900  0.35300  1.0000
  O   O10       1.0  0.66900  0.59100  0.35300  1.0000
  O   O11       1.0  0.08630  0.22700  0.37800  1.0000
  O   O12       1.0  0.91400  0.77300  0.37800  1.0000
  O   O13       1.0  0.66300  0.24800  0.46800  1.0000
  O   O14       1.0  0.33700  0.75200  0.46800  1.0000
  O   O15       1.0  0.24800  0.33700  0.53200  1.0000
  O   O16       1.0  0.75200  0.66300  0.53200  1.0000
  O   O17       1.0  0.77300  0.08630  0.62200  1.0000
  O   O18       1.0  0.22700  0.91400  0.62200  1.0000
  O   O19       1.0  0.59100  0.33100  0.64700  1.0000
  O   O20       1.0  0.40900  0.66900  0.64700  1.0000
  O   O21       1.0  0.00000  0.50000  0.66800  1.0000
  O   O22       1.0  0.50000  0.00000  0.83200  1.0000
  O   O23       1.0  0.09130  0.16900  0.85300  1.0000
  O   O24       1.0  0.90900  0.83100  0.85300  1.0000
  O   O25       1.0  0.27300  0.41400  0.87800  1.0000
  O   O26       1.0  0.72700  0.58600  0.87800  1.0000
  O   O27       1.0  0.74800  0.16300  0.96800  1.0000
  O   O28       1.0  0.25200  0.83700  0.96800  1.0000
  Sc  Sc1       1.0  0.00000  0.00000  0.00000  1.0000
  Sc  Sc2       1.0  0.50000  0.50000  0.50000  1.0000
