data_image0
_chemical_formula_structural       C12H12Mn4Na4O24
_chemical_formula_sum              "C12 H12 Mn4 Na4 O24"
_cell_length_a       8.99096
_cell_length_b       8.99096
_cell_length_c       8.99096
_cell_angle_alpha    90
_cell_angle_beta     90
_cell_angle_gamma    90

_space_group_name_H-M_alt    "P 1"
_space_group_IT_number       1

loop_
  _space_group_symop_operation_xyz
  'x, y, z'

loop_
  _atom_site_type_symbol
  _atom_site_label
  _atom_site_symmetry_multiplicity
  _atom_site_fract_x
  _atom_site_fract_y
  _atom_site_fract_z
  _atom_site_occupancy
  C   C1        1.0  0.76400  0.64900  0.03050  1.0000
  C   C2        1.0  0.46900  0.23600  0.14900  1.0000
  C   C3        1.0  0.14900  0.46900  0.23600  1.0000
  C   C4        1.0  0.85100  0.96900  0.26400  1.0000
  C   C5        1.0  0.53100  0.73600  0.35100  1.0000
  C   C6        1.0  0.23600  0.14900  0.46900  1.0000
  C   C7        1.0  0.73600  0.35100  0.53100  1.0000
  C   C8        1.0  0.03050  0.76400  0.64900  1.0000
  C   C9        1.0  0.35100  0.53100  0.73600  1.0000
  C   C10       1.0  0.64900  0.03050  0.76400  1.0000
  C   C11       1.0  0.96900  0.26400  0.85100  1.0000
  C   C12       1.0  0.26400  0.85100  0.96900  1.0000
  H   H1        1.0  0.79800  0.76800  0.02690  1.0000
  H   H2        1.0  0.26800  0.47300  0.20200  1.0000
  H   H3        1.0  0.52700  0.70200  0.23200  1.0000
  H   H4        1.0  0.47300  0.20200  0.26800  1.0000
  H   H5        1.0  0.73200  0.97300  0.29800  1.0000
  H   H6        1.0  0.20200  0.26800  0.47300  1.0000
  H   H7        1.0  0.70200  0.23200  0.52700  1.0000
  H   H8        1.0  0.23200  0.52700  0.70200  1.0000
  H   H9        1.0  0.97300  0.29800  0.73200  1.0000
  H   H10       1.0  0.02690  0.79800  0.76800  1.0000
  H   H11       1.0  0.76800  0.02690  0.79800  1.0000
  H   H12       1.0  0.29800  0.73200  0.97300  1.0000
  Mn  Mn1       1.0  0.13100  0.13100  0.13100  1.0000
  Mn  Mn2       1.0  0.86900  0.63100  0.36900  1.0000
  Mn  Mn3       1.0  0.36900  0.86900  0.63100  1.0000
  Mn  Mn4       1.0  0.63100  0.36900  0.86900  1.0000
  Na  Na1       1.0  0.82100  0.32100  0.17900  1.0000
  Na  Na2       1.0  0.17900  0.82100  0.32100  1.0000
  Na  Na3       1.0  0.67900  0.67900  0.67900  1.0000
  Na  Na4       1.0  0.32100  0.17900  0.82100  1.0000
  O   O1        1.0  0.35300  0.20800  0.07560  1.0000
  O   O2        1.0  0.20000  0.90200  0.08400  1.0000
  O   O3        1.0  0.58400  0.30000  0.09790  1.0000
  O   O4        1.0  0.79200  0.57600  0.14700  1.0000
  O   O5        1.0  0.90200  0.08400  0.20000  1.0000
  O   O6        1.0  0.07560  0.35300  0.20800  1.0000
  O   O7        1.0  0.92400  0.85300  0.29200  1.0000
  O   O8        1.0  0.09790  0.58400  0.30000  1.0000
  O   O9        1.0  0.20800  0.07560  0.35300  1.0000
  O   O10       1.0  0.41600  0.80000  0.40200  1.0000
  O   O11       1.0  0.80000  0.40200  0.41600  1.0000
  O   O12       1.0  0.64700  0.70800  0.42400  1.0000
  O   O13       1.0  0.14700  0.79200  0.57600  1.0000
  O   O14       1.0  0.30000  0.09790  0.58400  1.0000
  O   O15       1.0  0.91600  0.70000  0.59800  1.0000
  O   O16       1.0  0.70800  0.42400  0.64700  1.0000
  O   O17       1.0  0.59800  0.91600  0.70000  1.0000
  O   O18       1.0  0.42400  0.64700  0.70800  1.0000
  O   O19       1.0  0.57600  0.14700  0.79200  1.0000
  O   O20       1.0  0.40200  0.41600  0.80000  1.0000
  O   O21       1.0  0.29200  0.92400  0.85300  1.0000
  O   O22       1.0  0.08400  0.20000  0.90200  1.0000
  O   O23       1.0  0.70000  0.59800  0.91600  1.0000
  O   O24       1.0  0.85300  0.29200  0.92400  1.0000
