data_image0
_chemical_formula_structural       C4H28N12O12
_chemical_formula_sum              "C4 H28 N12 O12"
_cell_length_a       3.36198
_cell_length_b       11.0959
_cell_length_c       10.5153
_cell_angle_alpha    89.9945
_cell_angle_beta     93.6742
_cell_angle_gamma    89.9943

_space_group_name_H-M_alt    "P 1"
_space_group_IT_number       1

loop_
  _space_group_symop_operation_xyz
  'x, y, z'

loop_
  _atom_site_type_symbol
  _atom_site_label
  _atom_site_symmetry_multiplicity
  _atom_site_fract_x
  _atom_site_fract_y
  _atom_site_fract_z
  _atom_site_occupancy
  C   C1        1.0  0.48400  0.85100  0.01180  1.0000
  C   C2        1.0  0.51600  0.35100  0.48900  1.0000
  C   C3        1.0  0.48400  0.64900  0.51100  1.0000
  C   C4        1.0  0.51700  0.14900  0.98800  1.0000
  H   H1        1.0  0.80500  0.86400  0.02900  1.0000
  H   H2        1.0  0.45300  0.66800  0.04100  1.0000
  H   H3        1.0  0.63400  0.08400  0.05950  1.0000
  H   H4        1.0  0.05410  0.29500  0.09550  1.0000
  H   H5        1.0  0.34500  0.86800  0.10100  1.0000
  H   H6        1.0  0.43900  0.39500  0.15200  1.0000
  H   H7        1.0  0.43700  0.25300  0.20900  1.0000
  H   H8        1.0  0.56400  0.75300  0.29100  1.0000
  H   H9        1.0  0.56100  0.89500  0.34800  1.0000
  H   H10       1.0  0.65500  0.36700  0.39900  1.0000
  H   H11       1.0  0.94600  0.79500  0.40400  1.0000
  H   H12       1.0  0.36700  0.58400  0.44000  1.0000
  H   H13       1.0  0.54700  0.16800  0.45900  1.0000
  H   H14       1.0  0.19500  0.36400  0.47100  1.0000
  H   H15       1.0  0.80500  0.63600  0.52900  1.0000
  H   H16       1.0  0.45300  0.83200  0.54100  1.0000
  H   H17       1.0  0.63400  0.41600  0.56000  1.0000
  H   H18       1.0  0.05350  0.20500  0.59600  1.0000
  H   H19       1.0  0.34600  0.63200  0.60100  1.0000
  H   H20       1.0  0.43900  0.10500  0.65200  1.0000
  H   H21       1.0  0.43600  0.24700  0.70900  1.0000
  H   H22       1.0  0.56200  0.74700  0.79100  1.0000
  H   H23       1.0  0.56100  0.60500  0.84800  1.0000
  H   H24       1.0  0.65500  0.13300  0.89900  1.0000
  H   H25       1.0  0.94600  0.70500  0.90500  1.0000
  H   H26       1.0  0.36700  0.91600  0.94000  1.0000
  H   H27       1.0  0.54700  0.33200  0.95900  1.0000
  H   H28       1.0  0.19600  0.13600  0.97100  1.0000
  N   N1        1.0  0.61900  0.27100  0.03080  1.0000
  N   N2        1.0  0.36900  0.30600  0.13000  1.0000
  N   N3        1.0  0.94900  0.56300  0.20200  1.0000
  N   N4        1.0  0.05110  0.06300  0.29800  1.0000
  N   N5        1.0  0.63200  0.80600  0.37000  1.0000
  N   N6        1.0  0.38100  0.77100  0.46900  1.0000
  N   N7        1.0  0.61800  0.22900  0.53100  1.0000
  N   N8        1.0  0.36800  0.19400  0.63000  1.0000
  N   N9        1.0  0.94900  0.93700  0.70200  1.0000
  N   N10       1.0  0.05120  0.43700  0.79800  1.0000
  N   N11       1.0  0.63100  0.69400  0.87000  1.0000
  N   N12       1.0  0.38100  0.72900  0.96900  1.0000
  O   O1        1.0  0.71700  0.53000  0.10700  1.0000
  O   O2        1.0  0.06670  0.67100  0.20800  1.0000
  O   O3        1.0  0.94200  0.98800  0.21400  1.0000
  O   O4        1.0  0.05740  0.48700  0.28600  1.0000
  O   O5        1.0  0.93300  0.17200  0.29200  1.0000
  O   O6        1.0  0.28300  0.03010  0.39300  1.0000
  O   O7        1.0  0.71700  0.97000  0.60700  1.0000
  O   O8        1.0  0.06670  0.82800  0.70800  1.0000
  O   O9        1.0  0.94200  0.51300  0.71400  1.0000
  O   O10       1.0  0.05770  0.01220  0.78600  1.0000
  O   O11       1.0  0.93300  0.32900  0.79200  1.0000
  O   O12       1.0  0.28300  0.47000  0.89300  1.0000
