data_image0
_chemical_formula_structural       C8H16N16O16
_chemical_formula_sum              "C8 H16 N16 O16"
_cell_length_a       6.81532
_cell_length_b       6.07446
_cell_length_c       11.4262
_cell_angle_alpha    90
_cell_angle_beta     90
_cell_angle_gamma    90

_space_group_name_H-M_alt    "P 1"
_space_group_IT_number       1

loop_
  _space_group_symop_operation_xyz
  'x, y, z'

loop_
  _atom_site_type_symbol
  _atom_site_label
  _atom_site_symmetry_multiplicity
  _atom_site_fract_x
  _atom_site_fract_y
  _atom_site_fract_z
  _atom_site_occupancy
  C   C1        1.0  0.06690  0.51300  0.02600  1.0000
  C   C2        1.0  0.96700  0.56400  0.13500  1.0000
  C   C3        1.0  0.03340  0.06440  0.36500  1.0000
  C   C4        1.0  0.93300  0.01290  0.47400  1.0000
  C   C5        1.0  0.43300  0.48700  0.52600  1.0000
  C   C6        1.0  0.53300  0.43600  0.63500  1.0000
  C   C7        1.0  0.46700  0.93600  0.86500  1.0000
  C   C8        1.0  0.56700  0.98700  0.97400  1.0000
  H   H1        1.0  0.83500  0.04080  0.05100  1.0000
  H   H2        1.0  0.31900  0.05020  0.06750  1.0000
  H   H3        1.0  0.34000  0.55500  0.09440  1.0000
  H   H4        1.0  0.54200  0.06810  0.14600  1.0000
  H   H5        1.0  0.45800  0.56800  0.35400  1.0000
  H   H6        1.0  0.66000  0.05550  0.40600  1.0000
  H   H7        1.0  0.68100  0.55000  0.43200  1.0000
  H   H8        1.0  0.16500  0.54100  0.44900  1.0000
  H   H9        1.0  0.66500  0.95900  0.55100  1.0000
  H   H10       1.0  0.18100  0.95000  0.56800  1.0000
  H   H11       1.0  0.16000  0.44500  0.59400  1.0000
  H   H12       1.0  0.95800  0.93200  0.64600  1.0000
  H   H13       1.0  0.04190  0.43200  0.85400  1.0000
  H   H14       1.0  0.84000  0.94500  0.90600  1.0000
  H   H15       1.0  0.81900  0.45000  0.93200  1.0000
  H   H16       1.0  0.33500  0.45900  0.94900  1.0000
  N   N1        1.0  0.26100  0.51100  0.02230  1.0000
  N   N2        1.0  0.46700  0.03270  0.07050  1.0000
  N   N3        1.0  0.76000  0.58100  0.14100  1.0000
  N   N4        1.0  0.06940  0.59900  0.23900  1.0000
  N   N5        1.0  0.93100  0.09870  0.26100  1.0000
  N   N6        1.0  0.24000  0.08110  0.35900  1.0000
  N   N7        1.0  0.53300  0.53300  0.42900  1.0000
  N   N8        1.0  0.73900  0.01140  0.47800  1.0000
  N   N9        1.0  0.23900  0.48900  0.52200  1.0000
  N   N10       1.0  0.03290  0.96700  0.57100  1.0000
  N   N11       1.0  0.74000  0.41900  0.64100  1.0000
  N   N12       1.0  0.43100  0.40100  0.73900  1.0000
  N   N13       1.0  0.56900  0.90100  0.76100  1.0000
  N   N14       1.0  0.26000  0.91900  0.85900  1.0000
  N   N15       1.0  0.96700  0.46700  0.92900  1.0000
  N   N16       1.0  0.76100  0.98900  0.97800  1.0000
  O   O1        1.0  0.66000  0.48700  0.06390  1.0000
  O   O2        1.0  0.01620  0.07490  0.16400  1.0000
  O   O3        1.0  0.68200  0.69500  0.21900  1.0000
  O   O4        1.0  0.25000  0.64800  0.23600  1.0000
  O   O5        1.0  0.75000  0.14800  0.26400  1.0000
  O   O6        1.0  0.31800  0.19500  0.28100  1.0000
  O   O7        1.0  0.98400  0.57500  0.33600  1.0000
  O   O8        1.0  0.34000  0.98700  0.43600  1.0000
  O   O9        1.0  0.84000  0.51300  0.56400  1.0000
  O   O10       1.0  0.48400  0.92500  0.66400  1.0000
  O   O11       1.0  0.81800  0.30500  0.71900  1.0000
  O   O12       1.0  0.25000  0.35200  0.73600  1.0000
  O   O13       1.0  0.75000  0.85200  0.76400  1.0000
  O   O14       1.0  0.18200  0.80500  0.78100  1.0000
  O   O15       1.0  0.51600  0.42500  0.83600  1.0000
  O   O16       1.0  0.16000  0.01350  0.93600  1.0000
