data_image0
_chemical_formula_structural       C8H10Na2O28Rb4Zn4
_chemical_formula_sum              "C8 H10 Na2 O28 Rb4 Zn4"
_cell_length_a       10.6055
_cell_length_b       11.0596
_cell_length_c       5.184
_cell_angle_alpha    90
_cell_angle_beta     92.0419
_cell_angle_gamma    90

_space_group_name_H-M_alt    "P 1"
_space_group_IT_number       1

loop_
  _space_group_symop_operation_xyz
  'x, y, z'

loop_
  _atom_site_type_symbol
  _atom_site_label
  _atom_site_symmetry_multiplicity
  _atom_site_fract_x
  _atom_site_fract_y
  _atom_site_fract_z
  _atom_site_occupancy
  C   C1        1.0  0.43300  0.12600  0.00663  1.0000
  C   C2        1.0  0.31800  0.42700  0.03240  1.0000
  C   C3        1.0  0.18200  0.92700  0.46800  1.0000
  C   C4        1.0  0.06670  0.62600  0.49300  1.0000
  C   C5        1.0  0.93300  0.37400  0.50700  1.0000
  C   C6        1.0  0.81800  0.07260  0.53200  1.0000
  C   C7        1.0  0.68200  0.57300  0.96800  1.0000
  C   C8        1.0  0.56700  0.87400  0.99300  1.0000
  H   H1        1.0  0.50000  0.50000  0.00000  1.0000
  H   H2        1.0  0.18000  0.69400  0.12600  1.0000
  H   H3        1.0  0.77500  0.33600  0.15500  1.0000
  H   H4        1.0  0.72500  0.83600  0.34500  1.0000
  H   H5        1.0  0.32000  0.19400  0.37400  1.0000
  H   H6        1.0  0.00000  0.00000  0.50000  1.0000
  H   H7        1.0  0.68000  0.80600  0.62600  1.0000
  H   H8        1.0  0.27500  0.16400  0.65500  1.0000
  H   H9        1.0  0.22500  0.66400  0.84500  1.0000
  H   H10       1.0  0.82000  0.30600  0.87400  1.0000
  Na  Na1       1.0  0.00000  0.50000  0.00000  1.0000
  Na  Na2       1.0  0.50000  0.00000  0.50000  1.0000
  O   O1        1.0  0.25300  0.71000  0.00552  1.0000
  O   O2        1.0  0.78700  0.61100  0.07310  1.0000
  O   O3        1.0  0.67500  0.90800  0.09360  1.0000
  O   O4        1.0  0.59000  0.54200  0.11800  1.0000
  O   O5        1.0  0.46800  0.88200  0.13500  1.0000
  O   O6        1.0  0.16500  0.93700  0.22100  1.0000
  O   O7        1.0  0.44400  0.16500  0.23900  1.0000
  O   O8        1.0  0.05580  0.66500  0.26100  1.0000
  O   O9        1.0  0.33500  0.43700  0.27900  1.0000
  O   O10       1.0  0.03230  0.38200  0.36500  1.0000
  O   O11       1.0  0.91000  0.04230  0.38200  1.0000
  O   O12       1.0  0.82500  0.40800  0.40600  1.0000
  O   O13       1.0  0.71300  0.11100  0.42700  1.0000
  O   O14       1.0  0.24700  0.21000  0.49400  1.0000
  O   O15       1.0  0.75300  0.79000  0.50600  1.0000
  O   O16       1.0  0.28700  0.88900  0.57300  1.0000
  O   O17       1.0  0.17500  0.59200  0.59400  1.0000
  O   O18       1.0  0.09040  0.95800  0.61800  1.0000
  O   O19       1.0  0.96800  0.61800  0.63500  1.0000
  O   O20       1.0  0.66500  0.56300  0.72100  1.0000
  O   O21       1.0  0.94400  0.33500  0.73900  1.0000
  O   O22       1.0  0.55600  0.83500  0.76100  1.0000
  O   O23       1.0  0.83500  0.06320  0.77900  1.0000
  O   O24       1.0  0.53200  0.11800  0.86500  1.0000
  O   O25       1.0  0.41000  0.45800  0.88200  1.0000
  O   O26       1.0  0.32500  0.09240  0.90600  1.0000
  O   O27       1.0  0.21300  0.38900  0.92700  1.0000
  O   O28       1.0  0.74700  0.29000  0.99400  1.0000
  Rb  Rb1       1.0  0.07380  0.16500  0.03480  1.0000
  Rb  Rb2       1.0  0.42600  0.66500  0.46500  1.0000
  Rb  Rb3       1.0  0.57400  0.33500  0.53500  1.0000
  Rb  Rb4       1.0  0.92600  0.83500  0.96500  1.0000
  Zn  Zn1       1.0  0.70500  0.10800  0.03640  1.0000
  Zn  Zn2       1.0  0.79500  0.60800  0.46400  1.0000
  Zn  Zn3       1.0  0.20500  0.39200  0.53600  1.0000
  Zn  Zn4       1.0  0.29500  0.89200  0.96400  1.0000
