data_image0
_chemical_formula_structural       C8H32I12N4
_chemical_formula_sum              "C8 H32 I12 N4"
_cell_length_a       6.41071
_cell_length_b       9.85455
_cell_length_c       14.4426
_cell_angle_alpha    90
_cell_angle_beta     90
_cell_angle_gamma    90

_space_group_name_H-M_alt    "P 1"
_space_group_IT_number       1

loop_
  _space_group_symop_operation_xyz
  'x, y, z'

loop_
  _atom_site_type_symbol
  _atom_site_label
  _atom_site_symmetry_multiplicity
  _atom_site_fract_x
  _atom_site_fract_y
  _atom_site_fract_z
  _atom_site_occupancy
  C   C1        1.0  0.08630  0.68100  0.09050  1.0000
  C   C2        1.0  0.41400  0.81900  0.09050  1.0000
  C   C3        1.0  0.91400  0.18100  0.40900  1.0000
  C   C4        1.0  0.58600  0.31900  0.40900  1.0000
  C   C5        1.0  0.41400  0.68100  0.59100  1.0000
  C   C6        1.0  0.08630  0.81900  0.59100  1.0000
  C   C7        1.0  0.58600  0.18100  0.90900  1.0000
  C   C8        1.0  0.91400  0.31900  0.90900  1.0000
  H   H1        1.0  0.16200  0.60600  0.04630  1.0000
  H   H2        1.0  0.33800  0.89400  0.04630  1.0000
  H   H3        1.0  0.49300  0.74300  0.04800  1.0000
  H   H4        1.0  0.00682  0.75700  0.04800  1.0000
  H   H5        1.0  0.97600  0.63200  0.13800  1.0000
  H   H6        1.0  0.52400  0.86800  0.13800  1.0000
  H   H7        1.0  0.31900  0.67800  0.19000  1.0000
  H   H8        1.0  0.18100  0.82200  0.19000  1.0000
  H   H9        1.0  0.68100  0.17800  0.31000  1.0000
  H   H10       1.0  0.81900  0.32200  0.31000  1.0000
  H   H11       1.0  0.02400  0.13200  0.36200  1.0000
  H   H12       1.0  0.47600  0.36800  0.36200  1.0000
  H   H13       1.0  0.50700  0.24300  0.45200  1.0000
  H   H14       1.0  0.99300  0.25700  0.45200  1.0000
  H   H15       1.0  0.83800  0.10600  0.45400  1.0000
  H   H16       1.0  0.66200  0.39400  0.45400  1.0000
  H   H17       1.0  0.33800  0.60600  0.54600  1.0000
  H   H18       1.0  0.16200  0.89400  0.54600  1.0000
  H   H19       1.0  0.00682  0.74300  0.54800  1.0000
  H   H20       1.0  0.49300  0.75700  0.54800  1.0000
  H   H21       1.0  0.52400  0.63200  0.63800  1.0000
  H   H22       1.0  0.97600  0.86800  0.63800  1.0000
  H   H23       1.0  0.18100  0.67800  0.69000  1.0000
  H   H24       1.0  0.31900  0.82200  0.69000  1.0000
  H   H25       1.0  0.81900  0.17800  0.81000  1.0000
  H   H26       1.0  0.68100  0.32200  0.81000  1.0000
  H   H27       1.0  0.47600  0.13200  0.86200  1.0000
  H   H28       1.0  0.02400  0.36800  0.86200  1.0000
  H   H29       1.0  0.99300  0.24300  0.95200  1.0000
  H   H30       1.0  0.50700  0.25700  0.95200  1.0000
  H   H31       1.0  0.66200  0.10600  0.95400  1.0000
  H   H32       1.0  0.83800  0.39400  0.95400  1.0000
  I   I1        1.0  0.25000  0.25000  0.14700  1.0000
  I   I2        1.0  0.91000  0.05130  0.15000  1.0000
  I   I3        1.0  0.59000  0.44900  0.15000  1.0000
  I   I4        1.0  0.09010  0.55100  0.35000  1.0000
  I   I5        1.0  0.41000  0.94900  0.35000  1.0000
  I   I6        1.0  0.75000  0.75000  0.35300  1.0000
  I   I7        1.0  0.25000  0.25000  0.64700  1.0000
  I   I8        1.0  0.59000  0.05130  0.65000  1.0000
  I   I9        1.0  0.91000  0.44900  0.65000  1.0000
  I   I10       1.0  0.41000  0.55100  0.85000  1.0000
  I   I11       1.0  0.09010  0.94900  0.85000  1.0000
  I   I12       1.0  0.75000  0.75000  0.85300  1.0000
  N   N1        1.0  0.25000  0.75000  0.14700  1.0000
  N   N2        1.0  0.75000  0.25000  0.35300  1.0000
  N   N3        1.0  0.25000  0.75000  0.64700  1.0000
  N   N4        1.0  0.75000  0.25000  0.85300  1.0000
