data_image0
_chemical_formula_structural       C8H10O30Rb2U4
_chemical_formula_sum              "C8 H10 O30 Rb2 U4"
_cell_length_a       5.34484
_cell_length_b       13.2006
_cell_length_c       9.49282
_cell_angle_alpha    89.9824
_cell_angle_beta     100.421
_cell_angle_gamma    89.9832

_space_group_name_H-M_alt    "P 1"
_space_group_IT_number       1

loop_
  _space_group_symop_operation_xyz
  'x, y, z'

loop_
  _atom_site_type_symbol
  _atom_site_label
  _atom_site_symmetry_multiplicity
  _atom_site_fract_x
  _atom_site_fract_y
  _atom_site_fract_z
  _atom_site_occupancy
  C   C1        1.0  0.02440  0.05040  0.04340  1.0000
  C   C2        1.0  0.02500  0.45200  0.04350  1.0000
  C   C3        1.0  0.53000  0.44700  0.47800  1.0000
  C   C4        1.0  0.53000  0.05530  0.47800  1.0000
  C   C5        1.0  0.47100  0.55500  0.52200  1.0000
  C   C6        1.0  0.47100  0.94700  0.52300  1.0000
  C   C7        1.0  0.97600  0.55000  0.95700  1.0000
  C   C8        1.0  0.97600  0.95200  0.95700  1.0000
  H   H1        1.0  0.89700  0.24800  0.06160  1.0000
  H   H2        1.0  0.45300  0.75100  0.10800  1.0000
  H   H3        1.0  0.62700  0.25000  0.12200  1.0000
  H   H4        1.0  0.29700  0.30900  0.15200  1.0000
  H   H5        1.0  0.29600  0.19300  0.15200  1.0000
  H   H6        1.0  0.70400  0.80900  0.84900  1.0000
  H   H7        1.0  0.70400  0.69300  0.84900  1.0000
  H   H8        1.0  0.37300  0.75100  0.87900  1.0000
  H   H9        1.0  0.54800  0.25100  0.89300  1.0000
  H   H10       1.0  0.10400  0.75000  0.93900  1.0000
  O   O1        1.0  0.86300  0.62100  0.01090  1.0000
  O   O2        1.0  0.86200  0.88100  0.01110  1.0000
  O   O3        1.0  0.71300  0.25400  0.03770  1.0000
  O   O4        1.0  0.42800  0.55100  0.14000  1.0000
  O   O5        1.0  0.42800  0.95200  0.14100  1.0000
  O   O6        1.0  0.95000  0.05610  0.16200  1.0000
  O   O7        1.0  0.95100  0.44700  0.16200  1.0000
  O   O8        1.0  0.60000  0.75100  0.19300  1.0000
  O   O9        1.0  0.36700  0.25100  0.21200  1.0000
  O   O10       1.0  0.02430  0.62900  0.34200  1.0000
  O   O11       1.0  0.02420  0.87300  0.34200  1.0000
  O   O12       1.0  0.66600  0.43900  0.38300  1.0000
  O   O13       1.0  0.66700  0.06380  0.38300  1.0000
  O   O14       1.0  0.56400  0.62700  0.46000  1.0000
  O   O15       1.0  0.56400  0.87500  0.46100  1.0000
  O   O16       1.0  0.43700  0.12700  0.54000  1.0000
  O   O17       1.0  0.43700  0.37500  0.54000  1.0000
  O   O18       1.0  0.33500  0.56400  0.61700  1.0000
  O   O19       1.0  0.33400  0.93900  0.61700  1.0000
  O   O20       1.0  0.97600  0.12900  0.65800  1.0000
  O   O21       1.0  0.97700  0.37300  0.65800  1.0000
  O   O22       1.0  0.63400  0.75100  0.78900  1.0000
  O   O23       1.0  0.40000  0.25100  0.80700  1.0000
  O   O24       1.0  0.04990  0.94700  0.83900  1.0000
  O   O25       1.0  0.05130  0.55600  0.83900  1.0000
  O   O26       1.0  0.57300  0.45200  0.86000  1.0000
  O   O27       1.0  0.57200  0.05060  0.86000  1.0000
  O   O28       1.0  0.28800  0.75300  0.96300  1.0000
  O   O29       1.0  0.13800  0.12100  0.99000  1.0000
  O   O30       1.0  0.13900  0.38200  0.99000  1.0000
  Rb  Rb1       1.0  0.94600  0.25100  0.39700  1.0000
  Rb  Rb2       1.0  0.05460  0.75100  0.60400  1.0000
  U   U1        1.0  0.72600  0.58900  0.24200  1.0000
  U   U2        1.0  0.72600  0.91300  0.24200  1.0000
  U   U3        1.0  0.27500  0.08930  0.75900  1.0000
  U   U4        1.0  0.27500  0.41300  0.75900  1.0000
