data_image0
_chemical_formula_structural       C8H24N12O12
_chemical_formula_sum              "C8 H24 N12 O12"
_cell_length_a       3.22059
_cell_length_b       17.4713
_cell_length_c       8.715
_cell_angle_alpha    89.9973
_cell_angle_beta     119.186
_cell_angle_gamma    90.0011

_space_group_name_H-M_alt    "P 1"
_space_group_IT_number       1

loop_
  _space_group_symop_operation_xyz
  'x, y, z'

loop_
  _atom_site_type_symbol
  _atom_site_label
  _atom_site_symmetry_multiplicity
  _atom_site_fract_x
  _atom_site_fract_y
  _atom_site_fract_z
  _atom_site_occupancy
  C   C1        1.0  0.41900  0.88700  0.00315  1.0000
  C   C2        1.0  0.41000  0.76400  0.14600  1.0000
  C   C3        1.0  0.59000  0.26400  0.35400  1.0000
  C   C4        1.0  0.58100  0.38700  0.49700  1.0000
  C   C5        1.0  0.41900  0.61300  0.50300  1.0000
  C   C6        1.0  0.41000  0.73600  0.64600  1.0000
  C   C7        1.0  0.59000  0.23600  0.85400  1.0000
  C   C8        1.0  0.58100  0.11300  0.99700  1.0000
  H   H1        1.0  0.39600  0.66800  0.00910  1.0000
  H   H2        1.0  0.62500  0.22300  0.09370  1.0000
  H   H3        1.0  0.52600  0.98700  0.13800  1.0000
  H   H4        1.0  0.57900  0.54000  0.14000  1.0000
  H   H5        1.0  0.40500  0.65200  0.21100  1.0000
  H   H6        1.0  0.49300  0.90000  0.24600  1.0000
  H   H7        1.0  0.50700  0.40000  0.25400  1.0000
  H   H8        1.0  0.59500  0.15200  0.28900  1.0000
  H   H9        1.0  0.42100  0.03950  0.36000  1.0000
  H   H10       1.0  0.47400  0.48700  0.36200  1.0000
  H   H11       1.0  0.37500  0.72300  0.40600  1.0000
  H   H12       1.0  0.60400  0.16800  0.49100  1.0000
  H   H13       1.0  0.39600  0.83200  0.50900  1.0000
  H   H14       1.0  0.62500  0.27700  0.59400  1.0000
  H   H15       1.0  0.52600  0.51300  0.63800  1.0000
  H   H16       1.0  0.57900  0.96000  0.64000  1.0000
  H   H17       1.0  0.40500  0.84800  0.71100  1.0000
  H   H18       1.0  0.49300  0.60000  0.74600  1.0000
  H   H19       1.0  0.50700  0.10000  0.75400  1.0000
  H   H20       1.0  0.59500  0.34800  0.78900  1.0000
  H   H21       1.0  0.42100  0.46000  0.86000  1.0000
  H   H22       1.0  0.47400  0.01330  0.86200  1.0000
  H   H23       1.0  0.37500  0.77700  0.90600  1.0000
  H   H24       1.0  0.60400  0.33200  0.99100  1.0000
  N   N1        1.0  0.37700  0.80800  0.00866  1.0000
  N   N2        1.0  0.41900  0.68900  0.12200  1.0000
  N   N3        1.0  0.48500  0.92800  0.14100  1.0000
  N   N4        1.0  0.51500  0.42800  0.35900  1.0000
  N   N5        1.0  0.58100  0.18900  0.37800  1.0000
  N   N6        1.0  0.62300  0.30800  0.49100  1.0000
  N   N7        1.0  0.37700  0.69200  0.50900  1.0000
  N   N8        1.0  0.41900  0.81100  0.62200  1.0000
  N   N9        1.0  0.48500  0.57200  0.64100  1.0000
  N   N10       1.0  0.51500  0.07200  0.85900  1.0000
  N   N11       1.0  0.58100  0.31100  0.87800  1.0000
  N   N12       1.0  0.62300  0.19200  0.99100  1.0000
  O   O1        1.0  0.64100  0.53500  0.04130  1.0000
  O   O2        1.0  0.60500  0.08520  0.13500  1.0000
  O   O3        1.0  0.57400  0.29300  0.21900  1.0000
  O   O4        1.0  0.42600  0.79300  0.28100  1.0000
  O   O5        1.0  0.39500  0.58500  0.36500  1.0000
  O   O6        1.0  0.35900  0.03460  0.45900  1.0000
  O   O7        1.0  0.64100  0.96500  0.54100  1.0000
  O   O8        1.0  0.60500  0.41500  0.63500  1.0000
  O   O9        1.0  0.57400  0.20700  0.71900  1.0000
  O   O10       1.0  0.42600  0.70700  0.78100  1.0000
  O   O11       1.0  0.39500  0.91500  0.86500  1.0000
  O   O12       1.0  0.35900  0.46500  0.95900  1.0000
