data_image0
_chemical_formula_structural       C4H20N16O12S4Zn2
_chemical_formula_sum              "C4 H20 N16 O12 S4 Zn2"
_cell_length_a       6.46761
_cell_length_b       6.46761
_cell_length_c       14.1279
_cell_angle_alpha    99.4432
_cell_angle_beta     99.4432
_cell_angle_gamma    69.6182

_space_group_name_H-M_alt    "P 1"
_space_group_IT_number       1

loop_
  _space_group_symop_operation_xyz
  'x, y, z'

loop_
  _atom_site_type_symbol
  _atom_site_label
  _atom_site_symmetry_multiplicity
  _atom_site_fract_x
  _atom_site_fract_y
  _atom_site_fract_z
  _atom_site_occupancy
  C   C1        1.0  0.63500  0.24500  0.03680  1.0000
  C   C2        1.0  0.75500  0.36500  0.46300  1.0000
  C   C3        1.0  0.24500  0.63500  0.53700  1.0000
  C   C4        1.0  0.36500  0.75500  0.96300  1.0000
  H   H1        1.0  0.30200  0.26800  0.00894  1.0000
  H   H2        1.0  0.18900  0.81400  0.07650  1.0000
  H   H3        1.0  0.46700  0.81900  0.10800  1.0000
  H   H4        1.0  0.26100  0.47300  0.16800  1.0000
  H   H5        1.0  0.33700  0.20400  0.17600  1.0000
  H   H6        1.0  0.79600  0.66300  0.32400  1.0000
  H   H7        1.0  0.52700  0.73900  0.33200  1.0000
  H   H8        1.0  0.18100  0.53300  0.39200  1.0000
  H   H9        1.0  0.18600  0.81100  0.42300  1.0000
  H   H10       1.0  0.73200  0.69800  0.49100  1.0000
  H   H11       1.0  0.26800  0.30200  0.50900  1.0000
  H   H12       1.0  0.81400  0.18900  0.57700  1.0000
  H   H13       1.0  0.81900  0.46700  0.60800  1.0000
  H   H14       1.0  0.47300  0.26100  0.66800  1.0000
  H   H15       1.0  0.20400  0.33700  0.67600  1.0000
  H   H16       1.0  0.66300  0.79600  0.82400  1.0000
  H   H17       1.0  0.73900  0.52700  0.83200  1.0000
  H   H18       1.0  0.53300  0.18100  0.89200  1.0000
  H   H19       1.0  0.81100  0.18600  0.92300  1.0000
  H   H20       1.0  0.69800  0.73200  0.99100  1.0000
  N   N1        1.0  0.33900  0.80200  0.05660  1.0000
  N   N2        1.0  0.43400  0.27200  0.06150  1.0000
  N   N3        1.0  0.38900  0.32300  0.15800  1.0000
  N   N4        1.0  0.89000  0.75800  0.16500  1.0000
  N   N5        1.0  0.24200  0.11000  0.33500  1.0000
  N   N6        1.0  0.67700  0.61100  0.34200  1.0000
  N   N7        1.0  0.72800  0.56600  0.43800  1.0000
  N   N8        1.0  0.19800  0.66100  0.44300  1.0000
  N   N9        1.0  0.80200  0.33900  0.55700  1.0000
  N   N10       1.0  0.27200  0.43400  0.56200  1.0000
  N   N11       1.0  0.32300  0.38900  0.65800  1.0000
  N   N12       1.0  0.75800  0.89000  0.66500  1.0000
  N   N13       1.0  0.11000  0.24200  0.83500  1.0000
  N   N14       1.0  0.61100  0.67700  0.84200  1.0000
  N   N15       1.0  0.56600  0.72800  0.93800  1.0000
  N   N16       1.0  0.66100  0.19800  0.94300  1.0000
  O   O1        1.0  0.93100  0.72900  0.07820  1.0000
  O   O2        1.0  0.69300  0.85500  0.18700  1.0000
  O   O3        1.0  0.04470  0.69100  0.23100  1.0000
  O   O4        1.0  0.30900  0.95500  0.26900  1.0000
  O   O5        1.0  0.14500  0.30700  0.31300  1.0000
  O   O6        1.0  0.27100  0.06920  0.42200  1.0000
  O   O7        1.0  0.72900  0.93100  0.57800  1.0000
  O   O8        1.0  0.85500  0.69300  0.68700  1.0000
  O   O9        1.0  0.69100  0.04470  0.73100  1.0000
  O   O10       1.0  0.95500  0.30900  0.76900  1.0000
  O   O11       1.0  0.30700  0.14500  0.81300  1.0000
  O   O12       1.0  0.06920  0.27100  0.92200  1.0000
  S   S1        1.0  0.85500  0.26700  0.11900  1.0000
  S   S2        1.0  0.73300  0.14500  0.38100  1.0000
  S   S3        1.0  0.26700  0.85500  0.61900  1.0000
  S   S4        1.0  0.14500  0.73300  0.88100  1.0000
  Zn  Zn1       1.0  0.67400  0.32600  0.25000  1.0000
  Zn  Zn2       1.0  0.32600  0.67400  0.75000  1.0000
