data_image0
_chemical_formula_structural       C12H36N6O2P2
_chemical_formula_sum              "C12 H36 N6 O2 P2"
_cell_length_a       6.25181
_cell_length_b       12.2898
_cell_length_c       6.20153
_cell_angle_alpha    90
_cell_angle_beta     103.915
_cell_angle_gamma    90

_space_group_name_H-M_alt    "P 1"
_space_group_IT_number       1

loop_
  _space_group_symop_operation_xyz
  'x, y, z'

loop_
  _atom_site_type_symbol
  _atom_site_label
  _atom_site_symmetry_multiplicity
  _atom_site_fract_x
  _atom_site_fract_y
  _atom_site_fract_z
  _atom_site_occupancy
  C   C1        1.0  0.21400  0.11600  0.16900  1.0000
  C   C2        1.0  0.21400  0.38400  0.16900  1.0000
  C   C3        1.0  0.87400  0.08460  0.28600  1.0000
  C   C4        1.0  0.87400  0.41500  0.28600  1.0000
  C   C5        1.0  0.49700  0.65100  0.30000  1.0000
  C   C6        1.0  0.49700  0.84900  0.30000  1.0000
  C   C7        1.0  0.50300  0.15100  0.70000  1.0000
  C   C8        1.0  0.50300  0.34900  0.70000  1.0000
  C   C9        1.0  0.12600  0.58500  0.71400  1.0000
  C   C10       1.0  0.12600  0.91500  0.71400  1.0000
  C   C11       1.0  0.78600  0.61600  0.83100  1.0000
  C   C12       1.0  0.78600  0.88400  0.83100  1.0000
  H   H1        1.0  0.13000  0.14800  0.00401  1.0000
  H   H2        1.0  0.13000  0.35200  0.00401  1.0000
  H   H3        1.0  0.77000  0.11300  0.12600  1.0000
  H   H4        1.0  0.77000  0.38700  0.12600  1.0000
  H   H5        1.0  0.52100  0.64400  0.13000  1.0000
  H   H6        1.0  0.52100  0.85600  0.13000  1.0000
  H   H7        1.0  0.23500  0.02760  0.15400  1.0000
  H   H8        1.0  0.23500  0.47200  0.15400  1.0000
  H   H9        1.0  0.37800  0.15300  0.22000  1.0000
  H   H10       1.0  0.37800  0.34700  0.22000  1.0000
  H   H11       1.0  0.89400  0.50400  0.27800  1.0000
  H   H12       1.0  0.89400  0.99600  0.27800  1.0000
  H   H13       1.0  0.32000  0.65600  0.29100  1.0000
  H   H14       1.0  0.32000  0.84400  0.29100  1.0000
  H   H15       1.0  0.56900  0.57900  0.39400  1.0000
  H   H16       1.0  0.56900  0.92100  0.39400  1.0000
  H   H17       1.0  0.79100  0.10300  0.41800  1.0000
  H   H18       1.0  0.79100  0.39700  0.41800  1.0000
  H   H19       1.0  0.20900  0.60300  0.58200  1.0000
  H   H20       1.0  0.20900  0.89700  0.58200  1.0000
  H   H21       1.0  0.43100  0.07930  0.60600  1.0000
  H   H22       1.0  0.43100  0.42100  0.60600  1.0000
  H   H23       1.0  0.68000  0.15600  0.70900  1.0000
  H   H24       1.0  0.68000  0.34400  0.70900  1.0000
  H   H25       1.0  0.10600  0.00403  0.72200  1.0000
  H   H26       1.0  0.10600  0.49600  0.72200  1.0000
  H   H27       1.0  0.62200  0.65300  0.78000  1.0000
  H   H28       1.0  0.62200  0.84700  0.78000  1.0000
  H   H29       1.0  0.76500  0.52800  0.84600  1.0000
  H   H30       1.0  0.76500  0.97200  0.84600  1.0000
  H   H31       1.0  0.47900  0.14400  0.87000  1.0000
  H   H32       1.0  0.47900  0.35600  0.87000  1.0000
  H   H33       1.0  0.23000  0.61300  0.87400  1.0000
  H   H34       1.0  0.23000  0.88700  0.87400  1.0000
  H   H35       1.0  0.87000  0.64800  0.99600  1.0000
  H   H36       1.0  0.87000  0.85200  0.99600  1.0000
  N   N1        1.0  0.08980  0.13600  0.33600  1.0000
  N   N2        1.0  0.08980  0.36400  0.33600  1.0000
  N   N3        1.0  0.60100  0.75000  0.40900  1.0000
  N   N4        1.0  0.39900  0.25000  0.59100  1.0000
  N   N5        1.0  0.91000  0.63600  0.66400  1.0000
  N   N6        1.0  0.91000  0.86400  0.66400  1.0000
  O   O1        1.0  0.02090  0.75000  0.35400  1.0000
  O   O2        1.0  0.97900  0.25000  0.64600  1.0000
  P   P1        1.0  0.12700  0.25000  0.48800  1.0000
  P   P2        1.0  0.87300  0.75000  0.51200  1.0000
