data_image0
_chemical_formula_structural       C8H12K6O26V2
_chemical_formula_sum              "C8 H12 K6 O26 V2"
_cell_length_a       7.6232
_cell_length_b       11.4371
_cell_length_c       7.64944
_cell_angle_alpha    94.2567
_cell_angle_beta     109.115
_cell_angle_gamma    91.576

_space_group_name_H-M_alt    "P 1"
_space_group_IT_number       1

loop_
  _space_group_symop_operation_xyz
  'x, y, z'

loop_
  _atom_site_type_symbol
  _atom_site_label
  _atom_site_symmetry_multiplicity
  _atom_site_fract_x
  _atom_site_fract_y
  _atom_site_fract_z
  _atom_site_occupancy
  C   C1        1.0  0.82800  0.04430  0.08140  1.0000
  C   C2        1.0  0.33500  0.92700  0.09000  1.0000
  C   C3        1.0  0.27000  0.54800  0.12900  1.0000
  C   C4        1.0  0.13100  0.63000  0.17700  1.0000
  C   C5        1.0  0.86900  0.37000  0.82300  1.0000
  C   C6        1.0  0.73000  0.45200  0.87100  1.0000
  C   C7        1.0  0.66500  0.07310  0.91000  1.0000
  C   C8        1.0  0.17200  0.95600  0.91900  1.0000
  H   H1        1.0  0.65100  0.60500  0.08110  1.0000
  H   H2        1.0  0.57000  0.72300  0.12700  1.0000
  H   H3        1.0  0.47400  0.78100  0.36300  1.0000
  H   H4        1.0  0.62600  0.00406  0.38600  1.0000
  H   H5        1.0  0.29400  0.00775  0.40300  1.0000
  H   H6        1.0  0.57400  0.26300  0.46600  1.0000
  H   H7        1.0  0.42600  0.73700  0.53400  1.0000
  H   H8        1.0  0.70600  0.99200  0.59700  1.0000
  H   H9        1.0  0.37400  0.99600  0.61400  1.0000
  H   H10       1.0  0.52600  0.21900  0.63700  1.0000
  H   H11       1.0  0.43000  0.27700  0.87300  1.0000
  H   H12       1.0  0.34900  0.39500  0.91900  1.0000
  K   K1        1.0  0.26800  0.23100  0.16400  1.0000
  K   K2        1.0  0.96300  0.82800  0.41600  1.0000
  K   K3        1.0  0.72200  0.52400  0.42800  1.0000
  K   K4        1.0  0.27800  0.47600  0.57200  1.0000
  K   K5        1.0  0.03710  0.17200  0.58400  1.0000
  K   K6        1.0  0.73200  0.76900  0.83600  1.0000
  O   O1        1.0  0.70100  0.43400  0.02620  1.0000
  O   O2        1.0  0.06500  0.70200  0.05340  1.0000
  O   O3        1.0  0.38000  0.82000  0.08910  1.0000
  O   O4        1.0  0.87100  0.94200  0.10600  1.0000
  O   O5        1.0  0.68500  0.68100  0.15600  1.0000
  O   O6        1.0  0.91300  0.13500  0.19200  1.0000
  O   O7        1.0  0.40700  0.00772  0.21600  1.0000
  O   O8        1.0  0.34600  0.47100  0.23000  1.0000
  O   O9        1.0  0.65200  0.28200  0.26400  1.0000
  O   O10       1.0  0.99900  0.35500  0.32100  1.0000
  O   O11       1.0  0.09590  0.62200  0.32300  1.0000
  O   O12       1.0  0.52000  0.73500  0.47000  1.0000
  O   O13       1.0  0.74600  0.00334  0.48900  1.0000
  O   O14       1.0  0.25400  0.99700  0.51100  1.0000
  O   O15       1.0  0.48000  0.26500  0.53000  1.0000
  O   O16       1.0  0.90400  0.37800  0.67700  1.0000
  O   O17       1.0  0.00060  0.64500  0.67900  1.0000
  O   O18       1.0  0.34800  0.71800  0.73600  1.0000
  O   O19       1.0  0.65400  0.52900  0.77000  1.0000
  O   O20       1.0  0.59300  0.99200  0.78400  1.0000
  O   O21       1.0  0.08680  0.86500  0.80800  1.0000
  O   O22       1.0  0.31500  0.31900  0.84400  1.0000
  O   O23       1.0  0.12900  0.05790  0.89400  1.0000
  O   O24       1.0  0.62000  0.18000  0.91100  1.0000
  O   O25       1.0  0.93500  0.29800  0.94700  1.0000
  O   O26       1.0  0.29900  0.56600  0.97400  1.0000
  V   V1        1.0  0.81200  0.29300  0.16000  1.0000
  V   V2        1.0  0.18800  0.70700  0.84000  1.0000
