data_image0
_chemical_formula_structural       Al4C12H40N4
_chemical_formula_sum              "Al4 C12 H40 N4"
_cell_length_a       7.116
_cell_length_b       7.116
_cell_length_c       10.2293
_cell_angle_alpha    73.8476
_cell_angle_beta     106.152
_cell_angle_gamma    86.1491

_space_group_name_H-M_alt    "P 1"
_space_group_IT_number       1

loop_
  _space_group_symop_operation_xyz
  'x, y, z'

loop_
  _atom_site_type_symbol
  _atom_site_label
  _atom_site_symmetry_multiplicity
  _atom_site_fract_x
  _atom_site_fract_y
  _atom_site_fract_z
  _atom_site_occupancy
  Al  Al1       1.0  0.09050  0.03520  0.12600  1.0000
  Al  Al2       1.0  0.03520  0.09050  0.37400  1.0000
  Al  Al3       1.0  0.91000  0.96500  0.87400  1.0000
  Al  Al4       1.0  0.96500  0.91000  0.62600  1.0000
  C   C1        1.0  0.39500  0.84100  0.40200  1.0000
  C   C2        1.0  0.84100  0.39500  0.09800  1.0000
  C   C3        1.0  0.60500  0.15900  0.59800  1.0000
  C   C4        1.0  0.15900  0.60500  0.90200  1.0000
  C   C5        1.0  0.50200  0.70300  0.34700  1.0000
  C   C6        1.0  0.70300  0.50200  0.15300  1.0000
  C   C7        1.0  0.49800  0.29700  0.65300  1.0000
  C   C8        1.0  0.29700  0.49800  0.84700  1.0000
  C   C9        1.0  0.09420  0.69600  0.37100  1.0000
  C   C10       1.0  0.69600  0.09420  0.12900  1.0000
  C   C11       1.0  0.90600  0.30400  0.62900  1.0000
  C   C12       1.0  0.30400  0.90600  0.87100  1.0000
  H   H1        1.0  0.47300  0.76400  0.23100  1.0000
  H   H2        1.0  0.76400  0.47300  0.26900  1.0000
  H   H3        1.0  0.52700  0.23600  0.76900  1.0000
  H   H4        1.0  0.23600  0.52700  0.73100  1.0000
  H   H5        1.0  0.45900  0.55500  0.36900  1.0000
  H   H6        1.0  0.55500  0.45900  0.13100  1.0000
  H   H7        1.0  0.54100  0.44500  0.63100  1.0000
  H   H8        1.0  0.44500  0.54100  0.86900  1.0000
  H   H9        1.0  0.27300  0.14900  0.11200  1.0000
  H   H10       1.0  0.14900  0.27300  0.38800  1.0000
  H   H11       1.0  0.72700  0.85100  0.88800  1.0000
  H   H12       1.0  0.85100  0.72700  0.61200  1.0000
  H   H13       1.0  0.13800  0.62500  0.48800  1.0000
  H   H14       1.0  0.62500  0.13800  0.01240  1.0000
  H   H15       1.0  0.86200  0.37500  0.51200  1.0000
  H   H16       1.0  0.37500  0.86200  0.98800  1.0000
  H   H17       1.0  0.04860  0.83700  0.07150  1.0000
  H   H18       1.0  0.83700  0.04860  0.42800  1.0000
  H   H19       1.0  0.95100  0.16300  0.92800  1.0000
  H   H20       1.0  0.16300  0.95100  0.57200  1.0000
  H   H21       1.0  0.45100  0.98300  0.38100  1.0000
  H   H22       1.0  0.98300  0.45100  0.11900  1.0000
  H   H23       1.0  0.54900  0.01670  0.61900  1.0000
  H   H24       1.0  0.01670  0.54900  0.88100  1.0000
  H   H25       1.0  0.43100  0.77900  0.52000  1.0000
  H   H26       1.0  0.77900  0.43100  0.98000  1.0000
  H   H27       1.0  0.56900  0.22100  0.48000  1.0000
  H   H28       1.0  0.22100  0.56900  0.01960  1.0000
  H   H29       1.0  0.14200  0.58700  0.32300  1.0000
  H   H30       1.0  0.58700  0.14200  0.17700  1.0000
  H   H31       1.0  0.85800  0.41300  0.67700  1.0000
  H   H32       1.0  0.41300  0.85800  0.82300  1.0000
  H   H33       1.0  0.93200  0.72600  0.33100  1.0000
  H   H34       1.0  0.72600  0.93200  0.16900  1.0000
  H   H35       1.0  0.06830  0.27400  0.66900  1.0000
  H   H36       1.0  0.27400  0.06830  0.83100  1.0000
  H   H37       1.0  0.66200  0.68500  0.39900  1.0000
  H   H38       1.0  0.68500  0.66200  0.10100  1.0000
  H   H39       1.0  0.33800  0.31500  0.60100  1.0000
  H   H40       1.0  0.31500  0.33800  0.89900  1.0000
  N   N1        1.0  0.88000  0.17800  0.16500  1.0000
  N   N2        1.0  0.17800  0.88000  0.33500  1.0000
  N   N3        1.0  0.12000  0.82200  0.83500  1.0000
  N   N4        1.0  0.82200  0.12000  0.66500  1.0000
