data_image0
_chemical_formula_structural       C8H32N4O12U2
_chemical_formula_sum              "C8 H32 N4 O12 U2"
_cell_length_a       7.4751
_cell_length_b       6.88896
_cell_length_c       9.53445
_cell_angle_alpha    90
_cell_angle_beta     104.08
_cell_angle_gamma    90

_space_group_name_H-M_alt    "P 1"
_space_group_IT_number       1

loop_
  _space_group_symop_operation_xyz
  'x, y, z'

loop_
  _atom_site_type_symbol
  _atom_site_label
  _atom_site_symmetry_multiplicity
  _atom_site_fract_x
  _atom_site_fract_y
  _atom_site_fract_z
  _atom_site_occupancy
  C   C1        1.0  0.75600  0.43100  0.03330  1.0000
  C   C2        1.0  0.43500  0.81000  0.11800  1.0000
  C   C3        1.0  0.56500  0.31000  0.38200  1.0000
  C   C4        1.0  0.24400  0.93100  0.46700  1.0000
  C   C5        1.0  0.75600  0.06910  0.53300  1.0000
  C   C6        1.0  0.43500  0.69000  0.61800  1.0000
  C   C7        1.0  0.56500  0.19000  0.88200  1.0000
  C   C8        1.0  0.24400  0.56900  0.96700  1.0000
  H   H1        1.0  0.51500  0.82600  0.03670  1.0000
  H   H2        1.0  0.31600  0.45400  0.03940  1.0000
  H   H3        1.0  0.89800  0.47600  0.07950  1.0000
  H   H4        1.0  0.68800  0.40700  0.12100  1.0000
  H   H5        1.0  0.43100  0.94900  0.17200  1.0000
  H   H6        1.0  0.50100  0.69900  0.19700  1.0000
  H   H7        1.0  0.84200  0.83600  0.24400  1.0000
  H   H8        1.0  0.16600  0.56800  0.24900  1.0000
  H   H9        1.0  0.83400  0.06840  0.25100  1.0000
  H   H10       1.0  0.15800  0.33600  0.25600  1.0000
  H   H11       1.0  0.49900  0.19900  0.30300  1.0000
  H   H12       1.0  0.56900  0.44900  0.32800  1.0000
  H   H13       1.0  0.31200  0.90700  0.37900  1.0000
  H   H14       1.0  0.10200  0.97600  0.42000  1.0000
  H   H15       1.0  0.68400  0.95400  0.46100  1.0000
  H   H16       1.0  0.48500  0.32600  0.46300  1.0000
  H   H17       1.0  0.51500  0.67400  0.53700  1.0000
  H   H18       1.0  0.31600  0.04600  0.53900  1.0000
  H   H19       1.0  0.89800  0.02440  0.58000  1.0000
  H   H20       1.0  0.68800  0.09290  0.62100  1.0000
  H   H21       1.0  0.43100  0.55100  0.67200  1.0000
  H   H22       1.0  0.50100  0.80100  0.69700  1.0000
  H   H23       1.0  0.84200  0.66400  0.74400  1.0000
  H   H24       1.0  0.16600  0.93200  0.74900  1.0000
  H   H25       1.0  0.83400  0.43200  0.75100  1.0000
  H   H26       1.0  0.15800  0.16400  0.75600  1.0000
  H   H27       1.0  0.49900  0.30100  0.80300  1.0000
  H   H28       1.0  0.56900  0.05110  0.82800  1.0000
  H   H29       1.0  0.31200  0.59300  0.87900  1.0000
  H   H30       1.0  0.10200  0.52400  0.92000  1.0000
  H   H31       1.0  0.68400  0.54600  0.96100  1.0000
  H   H32       1.0  0.48500  0.17400  0.96300  1.0000
  N   N1        1.0  0.24700  0.75200  0.04560  1.0000
  N   N2        1.0  0.75300  0.25200  0.45400  1.0000
  N   N3        1.0  0.24700  0.74800  0.54600  1.0000
  N   N4        1.0  0.75300  0.24800  0.95400  1.0000
  O   O1        1.0  0.15300  0.16700  0.12300  1.0000
  O   O2        1.0  0.13500  0.74100  0.14500  1.0000
  O   O3        1.0  0.82300  0.95300  0.18100  1.0000
  O   O4        1.0  0.17700  0.45300  0.31900  1.0000
  O   O5        1.0  0.86500  0.24100  0.35500  1.0000
  O   O6        1.0  0.84700  0.66700  0.37700  1.0000
  O   O7        1.0  0.15300  0.33300  0.62300  1.0000
  O   O8        1.0  0.13500  0.75900  0.64500  1.0000
  O   O9        1.0  0.82300  0.54700  0.68100  1.0000
  O   O10       1.0  0.17700  0.04730  0.81900  1.0000
  O   O11       1.0  0.86500  0.25900  0.85500  1.0000
  O   O12       1.0  0.84700  0.83300  0.87700  1.0000
  U   U1        1.0  0.00000  0.00000  0.00000  1.0000
  U   U2        1.0  0.00000  0.50000  0.50000  1.0000
