data_image0
_chemical_formula_structural       Bi2C8H20K2O26
_chemical_formula_sum              "Bi2 C8 H20 K2 O26"
_cell_length_a       8.40863
_cell_length_b       9.01719
_cell_length_c       9.55146
_cell_angle_alpha    101.843
_cell_angle_beta     116.115
_cell_angle_gamma    62.2085

_space_group_name_H-M_alt    "P 1"
_space_group_IT_number       1

loop_
  _space_group_symop_operation_xyz
  'x, y, z'

loop_
  _atom_site_type_symbol
  _atom_site_label
  _atom_site_symmetry_multiplicity
  _atom_site_fract_x
  _atom_site_fract_y
  _atom_site_fract_z
  _atom_site_occupancy
  Bi  Bi1       1.0  0.59100  0.81800  0.00000  1.0000
  Bi  Bi2       1.0  0.84100  0.31800  0.50000  1.0000
  C   C1        1.0  0.61700  0.59700  0.24100  1.0000
  C   C2        1.0  0.82300  0.02300  0.24100  1.0000
  C   C3        1.0  0.83200  0.52300  0.25900  1.0000
  C   C4        1.0  0.62600  0.09750  0.25900  1.0000
  C   C5        1.0  0.27600  0.09750  0.74100  1.0000
  C   C6        1.0  0.64500  0.52300  0.74100  1.0000
  C   C7        1.0  0.15400  0.02300  0.75900  1.0000
  C   C8        1.0  0.78500  0.59700  0.75900  1.0000
  H   H1        1.0  0.40400  0.39000  0.00791  1.0000
  H   H2        1.0  0.97500  0.41700  0.04120  1.0000
  H   H3        1.0  0.08000  0.22400  0.04320  1.0000
  H   H4        1.0  0.29800  0.03820  0.23100  1.0000
  H   H5        1.0  0.09340  0.08180  0.23500  1.0000
  H   H6        1.0  0.10900  0.58200  0.26500  1.0000
  H   H7        1.0  0.31600  0.53800  0.26900  1.0000
  H   H8        1.0  0.28700  0.72400  0.45700  1.0000
  H   H9        1.0  0.18400  0.91700  0.45900  1.0000
  H   H10       1.0  0.64600  0.89000  0.49200  1.0000
  H   H11       1.0  0.46400  0.89000  0.50800  1.0000
  H   H12       1.0  0.89900  0.91700  0.54100  1.0000
  H   H13       1.0  0.98900  0.72400  0.54300  1.0000
  H   H14       1.0  0.14500  0.53800  0.73100  1.0000
  H   H15       1.0  0.30900  0.58200  0.73500  1.0000
  H   H16       1.0  0.82500  0.08180  0.76500  1.0000
  H   H17       1.0  0.66400  0.03820  0.76900  1.0000
  H   H18       1.0  0.69600  0.22400  0.95700  1.0000
  H   H19       1.0  0.60800  0.41700  0.95900  1.0000
  H   H20       1.0  0.20600  0.39000  0.99200  1.0000
  K   K1        1.0  0.10100  0.79700  0.00000  1.0000
  K   K2        1.0  0.35100  0.29700  0.50000  1.0000
  O   O1        1.0  0.26900  0.46300  0.00000  1.0000
  O   O2        1.0  0.64400  0.32300  0.02020  1.0000
  O   O3        1.0  0.48900  0.70900  0.13800  1.0000
  O   O4        1.0  0.85000  0.91100  0.14000  1.0000
  O   O5        1.0  0.15800  0.06990  0.16600  1.0000
  O   O6        1.0  0.86900  0.58000  0.17000  1.0000
  O   O7        1.0  0.50100  0.04280  0.17200  1.0000
  O   O8        1.0  0.57900  0.54300  0.32800  1.0000
  O   O9        1.0  0.94900  0.07950  0.33000  1.0000
  O   O10       1.0  0.24200  0.57000  0.33400  1.0000
  O   O11       1.0  0.96000  0.41100  0.36000  1.0000
  O   O12       1.0  0.60000  0.20900  0.36200  1.0000
  O   O13       1.0  0.87300  0.82300  0.48000  1.0000
  O   O14       1.0  0.51900  0.96300  0.50000  1.0000
  O   O15       1.0  0.30400  0.82300  0.52000  1.0000
  O   O16       1.0  0.19100  0.20900  0.63800  1.0000
  O   O17       1.0  0.62900  0.41100  0.64000  1.0000
  O   O18       1.0  0.18800  0.57000  0.66600  1.0000
  O   O19       1.0  0.97200  0.07950  0.67000  1.0000
  O   O20       1.0  0.87800  0.54300  0.67200  1.0000
  O   O21       1.0  0.45600  0.04280  0.82800  1.0000
  O   O22       1.0  0.55100  0.58000  0.83000  1.0000
  O   O23       1.0  0.77200  0.06990  0.83400  1.0000
  O   O24       1.0  0.23800  0.91100  0.86000  1.0000
  O   O25       1.0  0.80300  0.70900  0.86200  1.0000
  O   O26       1.0  0.03340  0.32300  0.98000  1.0000
