data_image0
_chemical_formula_structural       Ba2C12H16N12O16
_chemical_formula_sum              "Ba2 C12 H16 N12 O16"
_cell_length_a       9.04374
_cell_length_b       9.486
_cell_length_c       6.7353
_cell_angle_alpha    99.5809
_cell_angle_beta     98.6182
_cell_angle_gamma    91.5848

_space_group_name_H-M_alt    "P 1"
_space_group_IT_number       1

loop_
  _space_group_symop_operation_xyz
  'x, y, z'

loop_
  _atom_site_type_symbol
  _atom_site_label
  _atom_site_symmetry_multiplicity
  _atom_site_fract_x
  _atom_site_fract_y
  _atom_site_fract_z
  _atom_site_occupancy
  Ba  Ba1       1.0  0.22500  0.96600  0.09900  1.0000
  Ba  Ba2       1.0  0.77500  0.03430  0.90100  1.0000
  C   C1        1.0  0.79400  0.70700  0.02840  1.0000
  C   C2        1.0  0.39500  0.67900  0.20000  1.0000
  C   C3        1.0  0.98800  0.77500  0.26600  1.0000
  C   C4        1.0  0.04990  0.52400  0.31600  1.0000
  C   C5        1.0  0.60500  0.56100  0.35400  1.0000
  C   C6        1.0  0.60300  0.80400  0.38400  1.0000
  C   C7        1.0  0.39700  0.19600  0.61600  1.0000
  C   C8        1.0  0.39500  0.43900  0.64600  1.0000
  C   C9        1.0  0.95000  0.47600  0.68400  1.0000
  C   C10       1.0  0.01160  0.22500  0.73400  1.0000
  C   C11       1.0  0.60500  0.32100  0.80000  1.0000
  C   C12       1.0  0.20600  0.29300  0.97200  1.0000
  H   H1        1.0  0.80500  0.47800  0.03790  1.0000
  H   H2        1.0  0.41000  0.45600  0.18400  1.0000
  H   H3        1.0  0.02210  0.23000  0.25900  1.0000
  H   H4        1.0  0.69000  0.22200  0.28500  1.0000
  H   H5        1.0  0.69000  0.14900  0.31300  1.0000
  H   H6        1.0  0.95600  0.11700  0.36800  1.0000
  H   H7        1.0  0.15200  0.56300  0.42600  1.0000
  H   H8        1.0  0.78300  0.91900  0.46000  1.0000
  H   H9        1.0  0.21700  0.08070  0.54000  1.0000
  H   H10       1.0  0.84800  0.43800  0.57400  1.0000
  H   H11       1.0  0.04410  0.88300  0.63200  1.0000
  H   H12       1.0  0.31000  0.85100  0.68700  1.0000
  H   H13       1.0  0.31000  0.77800  0.71500  1.0000
  H   H14       1.0  0.97800  0.77000  0.74100  1.0000
  H   H15       1.0  0.59000  0.54400  0.81600  1.0000
  H   H16       1.0  0.19500  0.52200  0.96200  1.0000
  N   N1        1.0  0.84100  0.58600  0.09560  1.0000
  N   N2        1.0  0.88300  0.82400  0.13600  1.0000
  N   N3        1.0  0.46600  0.55700  0.23200  1.0000
  N   N4        1.0  0.96600  0.62400  0.24000  1.0000
  N   N5        1.0  0.46400  0.80800  0.28700  1.0000
  N   N6        1.0  0.67700  0.69300  0.42600  1.0000
  N   N7        1.0  0.32300  0.30700  0.57400  1.0000
  N   N8        1.0  0.53600  0.19200  0.71300  1.0000
  N   N9        1.0  0.03420  0.37600  0.76000  1.0000
  N   N10       1.0  0.53400  0.44200  0.76800  1.0000
  N   N11       1.0  0.11700  0.17600  0.86400  1.0000
  N   N12       1.0  0.15900  0.41400  0.90400  1.0000
  O   O1        1.0  0.49100  0.06780  0.00289  1.0000
  O   O2        1.0  0.26800  0.67400  0.08820  1.0000
  O   O3        1.0  0.31400  0.28700  0.11000  1.0000
  O   O4        1.0  0.00225  0.12400  0.24500  1.0000
  O   O5        1.0  0.00673  0.39600  0.25900  1.0000
  O   O6        1.0  0.65800  0.44700  0.38900  1.0000
  O   O7        1.0  0.09330  0.84500  0.39100  1.0000
  O   O8        1.0  0.67600  0.93500  0.44700  1.0000
  O   O9        1.0  0.32400  0.06470  0.55300  1.0000
  O   O10       1.0  0.90700  0.15500  0.60900  1.0000
  O   O11       1.0  0.34200  0.55300  0.61100  1.0000
  O   O12       1.0  0.99300  0.60400  0.74100  1.0000
  O   O13       1.0  0.99800  0.87600  0.75500  1.0000
  O   O14       1.0  0.68600  0.71300  0.89000  1.0000
  O   O15       1.0  0.73200  0.32600  0.91200  1.0000
  O   O16       1.0  0.50900  0.93200  0.99700  1.0000
