data_image0
_chemical_formula_structural       C4H20Na4O24P8
_chemical_formula_sum              "C4 H20 Na4 O24 P8"
_cell_length_a       7.89268
_cell_length_b       7.96266
_cell_length_c       9.54351
_cell_angle_alpha    90
_cell_angle_beta     101.245
_cell_angle_gamma    90

_space_group_name_H-M_alt    "P 1"
_space_group_IT_number       1

loop_
  _space_group_symop_operation_xyz
  'x, y, z'

loop_
  _atom_site_type_symbol
  _atom_site_label
  _atom_site_symmetry_multiplicity
  _atom_site_fract_x
  _atom_site_fract_y
  _atom_site_fract_z
  _atom_site_occupancy
  C   C1        1.0  0.98200  0.06970  0.19500  1.0000
  C   C2        1.0  0.51800  0.57000  0.30500  1.0000
  C   C3        1.0  0.48200  0.43000  0.69500  1.0000
  C   C4        1.0  0.01750  0.93000  0.80500  1.0000
  H   H1        1.0  0.72000  0.73300  0.00612  1.0000
  H   H2        1.0  0.91700  0.02400  0.08950  1.0000
  H   H3        1.0  0.23000  0.80300  0.14700  1.0000
  H   H4        1.0  0.50800  0.46500  0.22900  1.0000
  H   H5        1.0  0.85200  0.53600  0.23700  1.0000
  H   H6        1.0  0.64800  0.03590  0.26300  1.0000
  H   H7        1.0  0.99200  0.96500  0.27100  1.0000
  H   H8        1.0  0.27000  0.30300  0.35300  1.0000
  H   H9        1.0  0.58300  0.52400  0.41000  1.0000
  H   H10       1.0  0.78000  0.23300  0.49400  1.0000
  H   H11       1.0  0.22000  0.76700  0.50600  1.0000
  H   H12       1.0  0.41700  0.47600  0.59000  1.0000
  H   H13       1.0  0.73000  0.69700  0.64700  1.0000
  H   H14       1.0  0.00776  0.03530  0.72900  1.0000
  H   H15       1.0  0.35200  0.96400  0.73700  1.0000
  H   H16       1.0  0.14800  0.46400  0.76300  1.0000
  H   H17       1.0  0.49200  0.53500  0.77100  1.0000
  H   H18       1.0  0.77000  0.19700  0.85300  1.0000
  H   H19       1.0  0.08350  0.97600  0.91000  1.0000
  H   H20       1.0  0.28000  0.26700  0.99400  1.0000
  Na  Na1       1.0  0.50000  0.00000  0.00000  1.0000
  Na  Na2       1.0  0.00000  0.50000  0.00000  1.0000
  Na  Na3       1.0  0.00000  0.50000  0.50000  1.0000
  Na  Na4       1.0  0.50000  0.00000  0.50000  1.0000
  O   O1        1.0  0.18800  0.27400  0.07130  1.0000
  O   O2        1.0  0.61200  0.74900  0.09080  1.0000
  O   O3        1.0  0.28100  0.97100  0.12400  1.0000
  O   O4        1.0  0.85000  0.38600  0.16200  1.0000
  O   O5        1.0  0.19900  0.67800  0.17200  1.0000
  O   O6        1.0  0.65400  0.15000  0.20400  1.0000
  O   O7        1.0  0.84600  0.65000  0.29600  1.0000
  O   O8        1.0  0.30100  0.17800  0.32800  1.0000
  O   O9        1.0  0.65000  0.88600  0.33800  1.0000
  O   O10       1.0  0.21900  0.47100  0.37600  1.0000
  O   O11       1.0  0.88800  0.24900  0.40900  1.0000
  O   O12       1.0  0.31200  0.77400  0.42900  1.0000
  O   O13       1.0  0.68800  0.22600  0.57100  1.0000
  O   O14       1.0  0.11200  0.75100  0.59100  1.0000
  O   O15       1.0  0.78100  0.52900  0.62400  1.0000
  O   O16       1.0  0.35000  0.11400  0.66200  1.0000
  O   O17       1.0  0.69900  0.82200  0.67200  1.0000
  O   O18       1.0  0.15400  0.35000  0.70400  1.0000
  O   O19       1.0  0.34600  0.85000  0.79600  1.0000
  O   O20       1.0  0.80100  0.32200  0.82800  1.0000
  O   O21       1.0  0.15000  0.61400  0.83800  1.0000
  O   O22       1.0  0.71900  0.02860  0.87600  1.0000
  O   O23       1.0  0.38800  0.25100  0.90900  1.0000
  O   O24       1.0  0.81200  0.72600  0.92900  1.0000
  P   P1        1.0  0.19800  0.12400  0.17800  1.0000
  P   P2        1.0  0.84100  0.22600  0.24700  1.0000
  P   P3        1.0  0.65900  0.72600  0.25300  1.0000
  P   P4        1.0  0.30200  0.62400  0.32200  1.0000
  P   P5        1.0  0.69800  0.37600  0.67800  1.0000
  P   P6        1.0  0.34100  0.27400  0.74700  1.0000
  P   P7        1.0  0.15900  0.77400  0.75300  1.0000
  P   P8        1.0  0.80200  0.87600  0.82200  1.0000
