data_image0
_chemical_formula_structural       Ag4C16H24N8O8
_chemical_formula_sum              "Ag4 C16 H24 N8 O8"
_cell_length_a       6.38651
_cell_length_b       6.70241
_cell_length_c       12.2438
_cell_angle_alpha    90
_cell_angle_beta     93.2498
_cell_angle_gamma    90

_space_group_name_H-M_alt    "P 1"
_space_group_IT_number       1

loop_
  _space_group_symop_operation_xyz
  'x, y, z'

loop_
  _atom_site_type_symbol
  _atom_site_label
  _atom_site_symmetry_multiplicity
  _atom_site_fract_x
  _atom_site_fract_y
  _atom_site_fract_z
  _atom_site_occupancy
  Ag  Ag1       1.0  0.00000  0.00000  0.00000  1.0000
  Ag  Ag2       1.0  0.50000  0.30900  0.25000  1.0000
  Ag  Ag3       1.0  0.00000  0.00000  0.50000  1.0000
  Ag  Ag4       1.0  0.50000  0.69100  0.75000  1.0000
  C   C1        1.0  0.50800  0.07340  0.04970  1.0000
  C   C2        1.0  0.80200  0.63500  0.15100  1.0000
  C   C3        1.0  0.17800  0.63400  0.15200  1.0000
  C   C4        1.0  0.00000  0.38200  0.25000  1.0000
  C   C5        1.0  0.00000  0.88500  0.25000  1.0000
  C   C6        1.0  0.82200  0.63400  0.34800  1.0000
  C   C7        1.0  0.19700  0.63500  0.34900  1.0000
  C   C8        1.0  0.49200  0.07340  0.45000  1.0000
  C   C9        1.0  0.50800  0.92700  0.55000  1.0000
  C   C10       1.0  0.80200  0.36500  0.65100  1.0000
  C   C11       1.0  0.17800  0.36600  0.65200  1.0000
  C   C12       1.0  0.00000  0.11500  0.75000  1.0000
  C   C13       1.0  0.00000  0.61800  0.75000  1.0000
  C   C14       1.0  0.82200  0.36600  0.84800  1.0000
  C   C15       1.0  0.19800  0.36500  0.84900  1.0000
  C   C16       1.0  0.49200  0.92700  0.95000  1.0000
  H   H1        1.0  0.79100  0.53800  0.07890  1.0000
  H   H2        1.0  0.17300  0.53800  0.07970  1.0000
  H   H3        1.0  0.66400  0.73100  0.15100  1.0000
  H   H4        1.0  0.31600  0.73100  0.15200  1.0000
  H   H5        1.0  0.99200  0.28800  0.17600  1.0000
  H   H6        1.0  0.85900  0.97900  0.25000  1.0000
  H   H7        1.0  0.14100  0.97900  0.25000  1.0000
  H   H8        1.0  0.00760  0.28800  0.32400  1.0000
  H   H9        1.0  0.68400  0.73100  0.34800  1.0000
  H   H10       1.0  0.33600  0.73100  0.34900  1.0000
  H   H11       1.0  0.82700  0.53800  0.42000  1.0000
  H   H12       1.0  0.20900  0.53800  0.42100  1.0000
  H   H13       1.0  0.79100  0.46200  0.57900  1.0000
  H   H14       1.0  0.17300  0.46200  0.58000  1.0000
  H   H15       1.0  0.66400  0.26900  0.65100  1.0000
  H   H16       1.0  0.31600  0.26900  0.65200  1.0000
  H   H17       1.0  0.99200  0.71200  0.67600  1.0000
  H   H18       1.0  0.85900  0.02110  0.75000  1.0000
  H   H19       1.0  0.14100  0.02110  0.75000  1.0000
  H   H20       1.0  0.00760  0.71200  0.82400  1.0000
  H   H21       1.0  0.68400  0.26900  0.84800  1.0000
  H   H22       1.0  0.33600  0.26900  0.84900  1.0000
  H   H23       1.0  0.82700  0.46200  0.92000  1.0000
  H   H24       1.0  0.20900  0.46200  0.92100  1.0000
  N   N1        1.0  0.99000  0.76200  0.15000  1.0000
  N   N2        1.0  0.80800  0.50600  0.25000  1.0000
  N   N3        1.0  0.19200  0.50600  0.25000  1.0000
  N   N4        1.0  0.00981  0.76200  0.35000  1.0000
  N   N5        1.0  0.99000  0.23800  0.65000  1.0000
  N   N6        1.0  0.80800  0.49400  0.75000  1.0000
  N   N7        1.0  0.19200  0.49400  0.75000  1.0000
  N   N8        1.0  0.00981  0.23800  0.85000  1.0000
  O   O1        1.0  0.68400  0.15100  0.07630  1.0000
  O   O2        1.0  0.34100  0.10600  0.09940  1.0000
  O   O3        1.0  0.65900  0.10600  0.40100  1.0000
  O   O4        1.0  0.31600  0.15100  0.42400  1.0000
  O   O5        1.0  0.68400  0.84900  0.57600  1.0000
  O   O6        1.0  0.34100  0.89400  0.59900  1.0000
  O   O7        1.0  0.65900  0.89400  0.90100  1.0000
  O   O8        1.0  0.31600  0.84900  0.92400  1.0000
