data_image0
_chemical_formula_structural       C8H24Ni4O24
_chemical_formula_sum              "C8 H24 Ni4 O24"
_cell_length_a       8.44565
_cell_length_b       6.89307
_cell_length_c       8.99706
_cell_angle_alpha    90
_cell_angle_beta     97.4012
_cell_angle_gamma    90

_space_group_name_H-M_alt    "P 1"
_space_group_IT_number       1

loop_
  _space_group_symop_operation_xyz
  'x, y, z'

loop_
  _atom_site_type_symbol
  _atom_site_label
  _atom_site_symmetry_multiplicity
  _atom_site_fract_x
  _atom_site_fract_y
  _atom_site_fract_z
  _atom_site_occupancy
  C   C1        1.0  0.17200  0.60700  0.06980  1.0000
  C   C2        1.0  0.46700  0.21500  0.22000  1.0000
  C   C3        1.0  0.53300  0.71500  0.28000  1.0000
  C   C4        1.0  0.82800  0.10700  0.43000  1.0000
  C   C5        1.0  0.17200  0.89300  0.57000  1.0000
  C   C6        1.0  0.46700  0.28500  0.72000  1.0000
  C   C7        1.0  0.53300  0.78500  0.78000  1.0000
  C   C8        1.0  0.82800  0.39300  0.93000  1.0000
  H   H1        1.0  0.71300  0.88900  0.01990  1.0000
  H   H2        1.0  0.73700  0.11400  0.05530  1.0000
  H   H3        1.0  0.16900  0.46100  0.11900  1.0000
  H   H4        1.0  0.96400  0.65600  0.22200  1.0000
  H   H5        1.0  0.42400  0.78700  0.22800  1.0000
  H   H6        1.0  0.20600  0.08970  0.23400  1.0000
  H   H7        1.0  0.79400  0.59000  0.26600  1.0000
  H   H8        1.0  0.57600  0.28700  0.27200  1.0000
  H   H9        1.0  0.03590  0.15600  0.27800  1.0000
  H   H10       1.0  0.83100  0.96100  0.38100  1.0000
  H   H11       1.0  0.26300  0.61400  0.44500  1.0000
  H   H12       1.0  0.28700  0.38900  0.48000  1.0000
  H   H13       1.0  0.71300  0.61100  0.52000  1.0000
  H   H14       1.0  0.73700  0.38600  0.55500  1.0000
  H   H15       1.0  0.16900  0.03910  0.61900  1.0000
  H   H16       1.0  0.96400  0.84400  0.72200  1.0000
  H   H17       1.0  0.42400  0.71300  0.72800  1.0000
  H   H18       1.0  0.20600  0.41000  0.73400  1.0000
  H   H19       1.0  0.79400  0.91000  0.76600  1.0000
  H   H20       1.0  0.57600  0.21300  0.77200  1.0000
  H   H21       1.0  0.03590  0.34400  0.77800  1.0000
  H   H22       1.0  0.83100  0.53900  0.88100  1.0000
  H   H23       1.0  0.26300  0.88600  0.94500  1.0000
  H   H24       1.0  0.28700  0.11100  0.98000  1.0000
  Ni  Ni1       1.0  0.00000  0.00000  0.00000  1.0000
  Ni  Ni2       1.0  0.50000  0.50000  0.00000  1.0000
  Ni  Ni3       1.0  0.00000  0.50000  0.50000  1.0000
  Ni  Ni4       1.0  0.50000  0.00000  0.50000  1.0000
  O   O1        1.0  0.29100  0.65500  0.00310  1.0000
  O   O2        1.0  0.78200  0.98300  0.08280  1.0000
  O   O3        1.0  0.05620  0.72000  0.08430  1.0000
  O   O4        1.0  0.41000  0.26300  0.08780  1.0000
  O   O5        1.0  0.09570  0.12500  0.19100  1.0000
  O   O6        1.0  0.59700  0.58700  0.20600  1.0000
  O   O7        1.0  0.40300  0.08690  0.29400  1.0000
  O   O8        1.0  0.90400  0.62500  0.30900  1.0000
  O   O9        1.0  0.59000  0.76300  0.41200  1.0000
  O   O10       1.0  0.94400  0.22000  0.41600  1.0000
  O   O11       1.0  0.21800  0.48300  0.41700  1.0000
  O   O12       1.0  0.70900  0.15500  0.49700  1.0000
  O   O13       1.0  0.29100  0.84500  0.50300  1.0000
  O   O14       1.0  0.78200  0.51700  0.58300  1.0000
  O   O15       1.0  0.05620  0.78000  0.58400  1.0000
  O   O16       1.0  0.41000  0.23700  0.58800  1.0000
  O   O17       1.0  0.09570  0.37500  0.69100  1.0000
  O   O18       1.0  0.59700  0.91300  0.70600  1.0000
  O   O19       1.0  0.40300  0.41300  0.79400  1.0000
  O   O20       1.0  0.90400  0.87500  0.80900  1.0000
  O   O21       1.0  0.59000  0.73700  0.91200  1.0000
  O   O22       1.0  0.94400  0.28000  0.91600  1.0000
  O   O23       1.0  0.21800  0.01710  0.91700  1.0000
  O   O24       1.0  0.70900  0.34500  0.99700  1.0000
