data_image0
_chemical_formula_structural       Al4C12H44O4Si4
_chemical_formula_sum              "Al4 C12 H44 O4 Si4"
_cell_length_a       7.64973
_cell_length_b       9.70524
_cell_length_c       10.2325
_cell_angle_alpha    99.1072
_cell_angle_beta     111.95
_cell_angle_gamma    90

_space_group_name_H-M_alt    "P 1"
_space_group_IT_number       1

loop_
  _space_group_symop_operation_xyz
  'x, y, z'

loop_
  _atom_site_type_symbol
  _atom_site_label
  _atom_site_symmetry_multiplicity
  _atom_site_fract_x
  _atom_site_fract_y
  _atom_site_fract_z
  _atom_site_occupancy
  Al  Al1       1.0  0.38300  0.61200  0.01090  1.0000
  Al  Al2       1.0  0.62800  0.11200  0.01090  1.0000
  Al  Al3       1.0  0.61700  0.38800  0.98900  1.0000
  Al  Al4       1.0  0.37200  0.88800  0.98900  1.0000
  C   C1        1.0  0.89900  0.80200  0.22200  1.0000
  C   C2        1.0  0.32300  0.30200  0.22200  1.0000
  C   C3        1.0  0.98900  0.51400  0.30100  1.0000
  C   C4        1.0  0.31200  0.01360  0.30100  1.0000
  C   C5        1.0  0.70500  0.68200  0.40000  1.0000
  C   C6        1.0  0.69500  0.18200  0.40000  1.0000
  C   C7        1.0  0.29500  0.31800  0.60000  1.0000
  C   C8        1.0  0.30500  0.81800  0.60000  1.0000
  C   C9        1.0  0.68800  0.98600  0.69900  1.0000
  C   C10       1.0  0.01100  0.48600  0.69900  1.0000
  C   C11       1.0  0.10100  0.19800  0.77800  1.0000
  C   C12       1.0  0.67700  0.69800  0.77800  1.0000
  H   H1        1.0  0.85000  0.09760  0.07050  1.0000
  H   H2        1.0  0.22100  0.59800  0.07050  1.0000
  H   H3        1.0  0.66100  0.29400  0.11900  1.0000
  H   H4        1.0  0.45800  0.79400  0.11900  1.0000
  H   H5        1.0  0.95300  0.77500  0.13600  1.0000
  H   H6        1.0  0.18300  0.27500  0.13600  1.0000
  H   H7        1.0  0.79500  0.88100  0.19300  1.0000
  H   H8        1.0  0.39800  0.38100  0.19300  1.0000
  H   H9        1.0  0.04450  0.49200  0.21500  1.0000
  H   H10       1.0  0.17100  0.99200  0.21500  1.0000
  H   H11       1.0  0.93700  0.41400  0.31500  1.0000
  H   H12       1.0  0.37800  0.91400  0.31500  1.0000
  H   H13       1.0  0.01910  0.84900  0.31900  1.0000
  H   H14       1.0  0.29900  0.34900  0.31900  1.0000
  H   H15       1.0  0.77800  0.25600  0.37200  1.0000
  H   H16       1.0  0.59300  0.75600  0.37200  1.0000
  H   H17       1.0  0.29300  0.05760  0.40000  1.0000
  H   H18       1.0  0.10700  0.55800  0.40000  1.0000
  H   H19       1.0  0.77200  0.08620  0.41600  1.0000
  H   H20       1.0  0.64500  0.58600  0.41600  1.0000
  H   H21       1.0  0.31500  0.77100  0.49800  1.0000
  H   H22       1.0  0.18300  0.27100  0.49800  1.0000
  H   H23       1.0  0.81700  0.72900  0.50200  1.0000
  H   H24       1.0  0.68500  0.22900  0.50200  1.0000
  H   H25       1.0  0.22800  0.91400  0.58400  1.0000
  H   H26       1.0  0.35500  0.41400  0.58400  1.0000
  H   H27       1.0  0.89300  0.44200  0.60000  1.0000
  H   H28       1.0  0.70700  0.94200  0.60000  1.0000
  H   H29       1.0  0.22200  0.74400  0.62800  1.0000
  H   H30       1.0  0.40700  0.24400  0.62800  1.0000
  H   H31       1.0  0.70100  0.65100  0.68100  1.0000
  H   H32       1.0  0.98100  0.15100  0.68100  1.0000
  H   H33       1.0  0.06290  0.58600  0.68500  1.0000
  H   H34       1.0  0.62200  0.08630  0.68500  1.0000
  H   H35       1.0  0.82900  0.00790  0.78500  1.0000
  H   H36       1.0  0.95600  0.50800  0.78500  1.0000
  H   H37       1.0  0.60200  0.61900  0.80700  1.0000
  H   H38       1.0  0.20500  0.11900  0.80700  1.0000
  H   H39       1.0  0.04750  0.22500  0.86400  1.0000
  H   H40       1.0  0.81700  0.72500  0.86400  1.0000
  H   H41       1.0  0.33900  0.70600  0.88100  1.0000
  H   H42       1.0  0.54200  0.20600  0.88100  1.0000
  H   H43       1.0  0.77900  0.40200  0.93000  1.0000
  H   H44       1.0  0.15000  0.90200  0.93000  1.0000
  O   O1        1.0  0.48200  0.06350  0.10600  1.0000
  O   O2        1.0  0.62400  0.56400  0.10600  1.0000
  O   O3        1.0  0.37600  0.43600  0.89400  1.0000
  O   O4        1.0  0.51800  0.93600  0.89400  1.0000
  Si  Si1       1.0  0.45400  0.14100  0.25700  1.0000
  Si  Si2       1.0  0.80300  0.64100  0.25700  1.0000
  Si  Si3       1.0  0.19700  0.35900  0.74300  1.0000
  Si  Si4       1.0  0.54600  0.85900  0.74300  1.0000
