data_image0
_chemical_formula_structural       Al6C6H18N2O28P6
_chemical_formula_sum              "Al6 C6 H18 N2 O28 P6"
_cell_length_a       8.5116
_cell_length_b       8.88054
_cell_length_c       8.88054
_cell_angle_alpha    92.1592
_cell_angle_beta     94.2903
_cell_angle_gamma    85.7097

_space_group_name_H-M_alt    "P 1"
_space_group_IT_number       1

loop_
  _space_group_symop_operation_xyz
  'x, y, z'

loop_
  _atom_site_type_symbol
  _atom_site_label
  _atom_site_symmetry_multiplicity
  _atom_site_fract_x
  _atom_site_fract_y
  _atom_site_fract_z
  _atom_site_occupancy
  Al  Al1       1.0  0.90400  0.08570  0.18400  1.0000
  Al  Al2       1.0  0.21200  0.55700  0.38900  1.0000
  Al  Al3       1.0  0.71200  0.61100  0.44300  1.0000
  Al  Al4       1.0  0.91500  0.10900  0.67400  1.0000
  Al  Al5       1.0  0.41500  0.32600  0.89100  1.0000
  Al  Al6       1.0  0.40400  0.81600  0.91400  1.0000
  C   C1        1.0  0.86000  0.58100  0.03590  1.0000
  C   C2        1.0  0.48000  0.18300  0.32200  1.0000
  C   C3        1.0  0.36000  0.96400  0.41900  1.0000
  C   C4        1.0  0.61200  0.03860  0.52600  1.0000
  C   C5        1.0  0.98000  0.67800  0.81700  1.0000
  C   C6        1.0  0.11200  0.47400  0.96100  1.0000
  H   H1        1.0  0.10800  0.39900  0.05640  1.0000
  H   H2        1.0  0.84000  0.69500  0.08650  1.0000
  H   H3        1.0  0.88400  0.49800  0.12400  1.0000
  H   H4        1.0  0.43300  0.14600  0.21000  1.0000
  H   H5        1.0  0.34000  0.91300  0.30500  1.0000
  H   H6        1.0  0.59500  0.22700  0.31500  1.0000
  H   H7        1.0  0.39700  0.27300  0.36400  1.0000
  H   H8        1.0  0.25300  0.03270  0.44800  1.0000
  H   H9        1.0  0.38400  0.87600  0.50200  1.0000
  H   H10       1.0  0.60800  0.94400  0.60100  1.0000
  H   H11       1.0  0.31900  0.32200  0.62000  1.0000
  H   H12       1.0  0.81900  0.38000  0.67800  1.0000
  H   H13       1.0  0.23200  0.19800  0.70500  1.0000
  H   H14       1.0  0.89700  0.63600  0.72700  1.0000
  H   H15       1.0  0.09520  0.68500  0.77300  1.0000
  H   H16       1.0  0.73200  0.29500  0.80200  1.0000
  H   H17       1.0  0.93300  0.79000  0.85400  1.0000
  H   H18       1.0  0.75300  0.55200  0.96700  1.0000
  N   N1        1.0  0.49200  0.05830  0.42400  1.0000
  N   N2        1.0  0.99200  0.57600  0.94200  1.0000
  O   O1        1.0  0.48100  0.69900  0.05780  1.0000
  O   O2        1.0  0.05330  0.12400  0.07150  1.0000
  O   O3        1.0  0.48200  0.41300  0.07240  1.0000
  O   O4        1.0  0.73200  0.03070  0.08510  1.0000
  O   O5        1.0  0.30500  0.58800  0.22800  1.0000
  O   O6        1.0  0.86200  0.25900  0.28100  1.0000
  O   O7        1.0  0.59900  0.56400  0.28300  1.0000
  O   O8        1.0  0.98100  0.94200  0.30100  1.0000
  O   O9        1.0  0.09670  0.40400  0.35400  1.0000
  O   O10       1.0  0.80500  0.77200  0.41200  1.0000
  O   O11       1.0  0.09900  0.71700  0.43600  1.0000
  O   O12       1.0  0.84700  0.45800  0.49000  1.0000
  O   O13       1.0  0.01670  0.21900  0.53500  1.0000
  O   O14       1.0  0.72600  0.12400  0.53800  1.0000
  O   O15       1.0  0.34700  0.51000  0.54200  1.0000
  O   O16       1.0  0.98200  0.92800  0.58700  1.0000
  O   O17       1.0  0.59700  0.64600  0.59600  1.0000
  O   O18       1.0  0.33700  0.24100  0.69400  1.0000
  O   O19       1.0  0.36200  0.71900  0.74100  1.0000
  O   O20       1.0  0.83700  0.30600  0.75900  1.0000
  O   O21       1.0  0.51700  0.46500  0.78100  1.0000
  O   O22       1.0  0.10200  0.11500  0.79400  1.0000
  O   O23       1.0  0.81400  0.01320  0.81900  1.0000
  O   O24       1.0  0.55300  0.92900  0.87600  1.0000
  O   O25       1.0  0.22600  0.46200  0.87600  1.0000
  O   O26       1.0  0.60200  0.20600  0.88500  1.0000
  O   O27       1.0  0.23200  0.91500  0.96900  1.0000
  O   O28       1.0  0.31400  0.18100  0.98700  1.0000
  P   P1        1.0  0.46600  0.56300  0.15700  1.0000
  P   P2        1.0  0.95600  0.33200  0.41600  1.0000
  P   P3        1.0  0.96600  0.84300  0.43700  1.0000
  P   P4        1.0  0.45600  0.58400  0.66800  1.0000
  P   P5        1.0  0.67500  0.04560  0.91600  1.0000
  P   P6        1.0  0.17500  0.08420  0.95400  1.0000
