data_image0
_chemical_formula_structural       B4C8H16K4N32
_chemical_formula_sum              "B4 C8 H16 K4 N32"
_cell_length_a       5.068
_cell_length_b       15.2222
_cell_length_c       8.20582
_cell_angle_alpha    89.9999
_cell_angle_beta     110.021
_cell_angle_gamma    90.0001

_space_group_name_H-M_alt    "P 1"
_space_group_IT_number       1

loop_
  _space_group_symop_operation_xyz
  'x, y, z'

loop_
  _atom_site_type_symbol
  _atom_site_label
  _atom_site_symmetry_multiplicity
  _atom_site_fract_x
  _atom_site_fract_y
  _atom_site_fract_z
  _atom_site_occupancy
  B   B1        1.0  0.10300  0.21500  0.19200  1.0000
  B   B2        1.0  0.39700  0.71500  0.30800  1.0000
  B   B3        1.0  0.89700  0.78500  0.80800  1.0000
  B   B4        1.0  0.60300  0.28500  0.69200  1.0000
  C   C1        1.0  0.15000  0.10700  0.95500  1.0000
  C   C2        1.0  0.35000  0.60700  0.54500  1.0000
  C   C3        1.0  0.85000  0.89300  0.04460  1.0000
  C   C4        1.0  0.65000  0.39300  0.45500  1.0000
  C   C5        1.0  0.71400  0.33200  0.12700  1.0000
  C   C6        1.0  0.78600  0.83200  0.37300  1.0000
  C   C7        1.0  0.28600  0.66800  0.87300  1.0000
  C   C8        1.0  0.21400  0.16800  0.62700  1.0000
  H   H1        1.0  0.36900  0.12000  0.97300  1.0000
  H   H2        1.0  0.13100  0.62000  0.52700  1.0000
  H   H3        1.0  0.63100  0.88000  0.02660  1.0000
  H   H4        1.0  0.86900  0.38000  0.47300  1.0000
  H   H5        1.0  0.01680  0.19500  0.30600  1.0000
  H   H6        1.0  0.48300  0.69500  0.19400  1.0000
  H   H7        1.0  0.98300  0.80500  0.69400  1.0000
  H   H8        1.0  0.51700  0.30500  0.80600  1.0000
  H   H9        1.0  0.58900  0.29900  0.19200  1.0000
  H   H10       1.0  0.91100  0.79900  0.30800  1.0000
  H   H11       1.0  0.41100  0.70100  0.80800  1.0000
  H   H12       1.0  0.08910  0.20100  0.69200  1.0000
  H   H13       1.0  0.35300  0.22300  0.23800  1.0000
  H   H14       1.0  0.14700  0.72300  0.26200  1.0000
  H   H15       1.0  0.64700  0.77700  0.76200  1.0000
  H   H16       1.0  0.85300  0.27700  0.73800  1.0000
  K   K1        1.0  0.80700  0.55800  0.21500  1.0000
  K   K2        1.0  0.69300  0.05790  0.28500  1.0000
  K   K3        1.0  0.19300  0.44200  0.78500  1.0000
  K   K4        1.0  0.30700  0.94200  0.71500  1.0000
  N   N1        1.0  0.73000  0.05960  0.86200  1.0000
  N   N2        1.0  0.77000  0.56000  0.63800  1.0000
  N   N3        1.0  0.27000  0.94000  0.13800  1.0000
  N   N4        1.0  0.23000  0.44000  0.36200  1.0000
  N   N5        1.0  0.74500  0.11700  0.98400  1.0000
  N   N6        1.0  0.75500  0.61700  0.51600  1.0000
  N   N7        1.0  0.25500  0.88300  0.01560  1.0000
  N   N8        1.0  0.24500  0.38300  0.48400  1.0000
  N   N9        1.0  0.01100  0.14700  0.04610  1.0000
  N   N10       1.0  0.48900  0.64700  0.45400  1.0000
  N   N11       1.0  0.98900  0.85300  0.95400  1.0000
  N   N12       1.0  0.51100  0.35300  0.54600  1.0000
  N   N13       1.0  0.65200  0.40600  0.03960  1.0000
  N   N14       1.0  0.84800  0.90600  0.46000  1.0000
  N   N15       1.0  0.34800  0.59400  0.96000  1.0000
  N   N16       1.0  0.15200  0.09360  0.54000  1.0000
  N   N17       1.0  0.85900  0.41900  0.97300  1.0000
  N   N18       1.0  0.64100  0.91900  0.52700  1.0000
  N   N19       1.0  0.14100  0.58100  0.02690  1.0000
  N   N20       1.0  0.35900  0.08100  0.47300  1.0000
  N   N21       1.0  0.04320  0.35500  0.02030  1.0000
  N   N22       1.0  0.45700  0.85500  0.48000  1.0000
  N   N23       1.0  0.95700  0.64500  0.98000  1.0000
  N   N24       1.0  0.54300  0.14500  0.52000  1.0000
  N   N25       1.0  0.95400  0.30000  0.11700  1.0000
  N   N26       1.0  0.54600  0.80000  0.38300  1.0000
  N   N27       1.0  0.04600  0.70000  0.88300  1.0000
  N   N28       1.0  0.45400  0.20000  0.61700  1.0000
  N   N29       1.0  0.98000  0.05180  0.84100  1.0000
  N   N30       1.0  0.52000  0.55200  0.65900  1.0000
  N   N31       1.0  0.02000  0.94800  0.15900  1.0000
  N   N32       1.0  0.48000  0.44800  0.34100  1.0000
