data_image0
_chemical_formula_structural       C8H24O24Zn4
_chemical_formula_sum              "C8 H24 O24 Zn4"
_cell_length_a       8.56744
_cell_length_b       6.9509
_cell_length_c       9.11423
_cell_angle_alpha    90
_cell_angle_beta     98.0517
_cell_angle_gamma    90

_space_group_name_H-M_alt    "P 1"
_space_group_IT_number       1

loop_
  _space_group_symop_operation_xyz
  'x, y, z'

loop_
  _atom_site_type_symbol
  _atom_site_label
  _atom_site_symmetry_multiplicity
  _atom_site_fract_x
  _atom_site_fract_y
  _atom_site_fract_z
  _atom_site_occupancy
  C   C1        1.0  0.67200  0.10200  0.07260  1.0000
  C   C2        1.0  0.96600  0.70800  0.21600  1.0000
  C   C3        1.0  0.03380  0.20800  0.28400  1.0000
  C   C4        1.0  0.32800  0.60200  0.42700  1.0000
  C   C5        1.0  0.67200  0.39800  0.57300  1.0000
  C   C6        1.0  0.96600  0.79200  0.71600  1.0000
  C   C7        1.0  0.03380  0.29200  0.78400  1.0000
  C   C8        1.0  0.32800  0.89800  0.92700  1.0000
  H   H1        1.0  0.21000  0.39600  0.02210  1.0000
  H   H2        1.0  0.23900  0.62000  0.05440  1.0000
  H   H3        1.0  0.67300  0.95600  0.12000  1.0000
  H   H4        1.0  0.46600  0.15300  0.22400  1.0000
  H   H5        1.0  0.92600  0.27900  0.23000  1.0000
  H   H6        1.0  0.70400  0.59400  0.23300  1.0000
  H   H7        1.0  0.29600  0.09420  0.26700  1.0000
  H   H8        1.0  0.07370  0.77900  0.27000  1.0000
  H   H9        1.0  0.53400  0.65300  0.27600  1.0000
  H   H10       1.0  0.32700  0.45600  0.38000  1.0000
  H   H11       1.0  0.76100  0.12000  0.44600  1.0000
  H   H12       1.0  0.79000  0.89600  0.47800  1.0000
  H   H13       1.0  0.21000  0.10400  0.52200  1.0000
  H   H14       1.0  0.23900  0.88000  0.55400  1.0000
  H   H15       1.0  0.67300  0.54400  0.62000  1.0000
  H   H16       1.0  0.46600  0.34700  0.72400  1.0000
  H   H17       1.0  0.92600  0.22100  0.73000  1.0000
  H   H18       1.0  0.70400  0.90600  0.73300  1.0000
  H   H19       1.0  0.29600  0.40600  0.76700  1.0000
  H   H20       1.0  0.07370  0.72100  0.77000  1.0000
  H   H21       1.0  0.53400  0.84700  0.77600  1.0000
  H   H22       1.0  0.32700  0.04380  0.88000  1.0000
  H   H23       1.0  0.76100  0.38000  0.94600  1.0000
  H   H24       1.0  0.79000  0.60400  0.97800  1.0000
  O   O1        1.0  0.78600  0.15200  0.00352  1.0000
  O   O2        1.0  0.28000  0.48800  0.08430  1.0000
  O   O3        1.0  0.91200  0.75500  0.08440  1.0000
  O   O4        1.0  0.55900  0.21200  0.09080  1.0000
  O   O5        1.0  0.59500  0.63100  0.19100  1.0000
  O   O6        1.0  0.09970  0.08330  0.21200  1.0000
  O   O7        1.0  0.90000  0.58300  0.28800  1.0000
  O   O8        1.0  0.40500  0.13100  0.30900  1.0000
  O   O9        1.0  0.44100  0.71200  0.40900  1.0000
  O   O10       1.0  0.08780  0.25500  0.41600  1.0000
  O   O11       1.0  0.72000  0.98800  0.41600  1.0000
  O   O12       1.0  0.21400  0.65200  0.49600  1.0000
  O   O13       1.0  0.78600  0.34800  0.50400  1.0000
  O   O14       1.0  0.28000  0.01190  0.58400  1.0000
  O   O15       1.0  0.91200  0.74500  0.58400  1.0000
  O   O16       1.0  0.55900  0.28800  0.59100  1.0000
  O   O17       1.0  0.59500  0.86900  0.69100  1.0000
  O   O18       1.0  0.09970  0.41700  0.71200  1.0000
  O   O19       1.0  0.90000  0.91700  0.78800  1.0000
  O   O20       1.0  0.40500  0.36900  0.80900  1.0000
  O   O21       1.0  0.44100  0.78800  0.90900  1.0000
  O   O22       1.0  0.08780  0.24500  0.91600  1.0000
  O   O23       1.0  0.72000  0.51200  0.91600  1.0000
  O   O24       1.0  0.21400  0.84800  0.99600  1.0000
  Zn  Zn1       1.0  0.00000  0.00000  0.00000  1.0000
  Zn  Zn2       1.0  0.50000  0.50000  0.00000  1.0000
  Zn  Zn3       1.0  0.00000  0.50000  0.50000  1.0000
  Zn  Zn4       1.0  0.50000  0.00000  0.50000  1.0000
