data_image0
_chemical_formula_structural       C8H24Mg2O24Zn2
_chemical_formula_sum              "C8 H24 Mg2 O24 Zn2"
_cell_length_a       8.5903
_cell_length_b       7.04199
_cell_length_c       9.15436
_cell_angle_alpha    90
_cell_angle_beta     97.7229
_cell_angle_gamma    90

_space_group_name_H-M_alt    "P 1"
_space_group_IT_number       1

loop_
  _space_group_symop_operation_xyz
  'x, y, z'

loop_
  _atom_site_type_symbol
  _atom_site_label
  _atom_site_symmetry_multiplicity
  _atom_site_fract_x
  _atom_site_fract_y
  _atom_site_fract_z
  _atom_site_occupancy
  C   C1        1.0  0.17400  0.38600  0.06310  1.0000
  C   C2        1.0  0.46100  0.77900  0.22300  1.0000
  C   C3        1.0  0.53900  0.27900  0.27700  1.0000
  C   C4        1.0  0.82600  0.88600  0.43700  1.0000
  C   C5        1.0  0.17400  0.11400  0.56300  1.0000
  C   C6        1.0  0.46100  0.72100  0.72300  1.0000
  C   C7        1.0  0.53900  0.22100  0.77700  1.0000
  C   C8        1.0  0.82600  0.61400  0.93700  1.0000
  H   H1        1.0  0.71200  0.11600  0.01410  1.0000
  H   H2        1.0  0.73500  0.89500  0.05200  1.0000
  H   H3        1.0  0.17200  0.53100  0.10900  1.0000
  H   H4        1.0  0.96900  0.34700  0.21800  1.0000
  H   H5        1.0  0.43100  0.20900  0.22400  1.0000
  H   H6        1.0  0.19900  0.90400  0.23900  1.0000
  H   H7        1.0  0.80100  0.40400  0.26100  1.0000
  H   H8        1.0  0.56900  0.70900  0.27600  1.0000
  H   H9        1.0  0.03120  0.84700  0.28200  1.0000
  H   H10       1.0  0.82800  0.03060  0.39100  1.0000
  H   H11       1.0  0.26500  0.39500  0.44800  1.0000
  H   H12       1.0  0.28800  0.61600  0.48600  1.0000
  H   H13       1.0  0.71200  0.38400  0.51400  1.0000
  H   H14       1.0  0.73500  0.60500  0.55200  1.0000
  H   H15       1.0  0.17200  0.96900  0.60900  1.0000
  H   H16       1.0  0.96900  0.15300  0.71800  1.0000
  H   H17       1.0  0.43100  0.29100  0.72400  1.0000
  H   H18       1.0  0.19900  0.59600  0.73900  1.0000
  H   H19       1.0  0.80100  0.09600  0.76100  1.0000
  H   H20       1.0  0.56900  0.79100  0.77600  1.0000
  H   H21       1.0  0.03120  0.65300  0.78200  1.0000
  H   H22       1.0  0.82800  0.46900  0.89100  1.0000
  H   H23       1.0  0.26500  0.10500  0.94800  1.0000
  H   H24       1.0  0.28800  0.88400  0.98600  1.0000
  Mg  Mg1       1.0  0.00000  0.00000  0.00000  1.0000
  Mg  Mg2       1.0  0.00000  0.50000  0.50000  1.0000
  O   O1        1.0  0.29100  0.33600  0.00000  1.0000
  O   O2        1.0  0.70900  0.66400  0.00000  1.0000
  O   O3        1.0  0.78100  0.02390  0.07420  1.0000
  O   O4        1.0  0.05970  0.27700  0.07800  1.0000
  O   O5        1.0  0.40500  0.72900  0.09360  1.0000
  O   O6        1.0  0.08710  0.88900  0.19900  1.0000
  O   O7        1.0  0.60200  0.40500  0.20600  1.0000
  O   O8        1.0  0.39800  0.90500  0.29400  1.0000
  O   O9        1.0  0.91300  0.38900  0.30100  1.0000
  O   O10       1.0  0.59500  0.22900  0.40600  1.0000
  O   O11       1.0  0.94000  0.77700  0.42200  1.0000
  O   O12       1.0  0.21900  0.52400  0.42600  1.0000
  O   O13       1.0  0.70900  0.83600  0.50000  1.0000
  O   O14       1.0  0.29100  0.16400  0.50000  1.0000
  O   O15       1.0  0.78100  0.47600  0.57400  1.0000
  O   O16       1.0  0.05970  0.22300  0.57800  1.0000
  O   O17       1.0  0.40500  0.77100  0.59400  1.0000
  O   O18       1.0  0.08710  0.61100  0.69900  1.0000
  O   O19       1.0  0.60200  0.09530  0.70600  1.0000
  O   O20       1.0  0.39800  0.59500  0.79400  1.0000
  O   O21       1.0  0.91300  0.11100  0.80100  1.0000
  O   O22       1.0  0.59500  0.27100  0.90600  1.0000
  O   O23       1.0  0.94000  0.72300  0.92200  1.0000
  O   O24       1.0  0.21900  0.97600  0.92600  1.0000
  Zn  Zn1       1.0  0.50000  0.50000  0.00000  1.0000
  Zn  Zn2       1.0  0.50000  0.00000  0.50000  1.0000
