data_image0
_chemical_formula_structural       C8H8K4O36S4Tb4
_chemical_formula_sum              "C8 H8 K4 O36 S4 Tb4"
_cell_length_a       6.48166
_cell_length_b       8.42867
_cell_length_c       14.4136
_cell_angle_alpha    90
_cell_angle_beta     112.712
_cell_angle_gamma    90

_space_group_name_H-M_alt    "P 1"
_space_group_IT_number       1

loop_
  _space_group_symop_operation_xyz
  'x, y, z'

loop_
  _atom_site_type_symbol
  _atom_site_label
  _atom_site_symmetry_multiplicity
  _atom_site_fract_x
  _atom_site_fract_y
  _atom_site_fract_z
  _atom_site_occupancy
  C   C1        1.0  0.58700  0.54000  0.22000  1.0000
  C   C2        1.0  0.36400  0.53700  0.23200  1.0000
  C   C3        1.0  0.63600  0.03680  0.26800  1.0000
  C   C4        1.0  0.41300  0.04040  0.28000  1.0000
  C   C5        1.0  0.58700  0.96000  0.72000  1.0000
  C   C6        1.0  0.36400  0.96300  0.73200  1.0000
  C   C7        1.0  0.63600  0.46300  0.76800  1.0000
  C   C8        1.0  0.41300  0.46000  0.78000  1.0000
  H   H1        1.0  0.96900  0.53500  0.08270  1.0000
  H   H2        1.0  0.72900  0.53300  0.08560  1.0000
  H   H3        1.0  0.27100  0.03270  0.41400  1.0000
  H   H4        1.0  0.03060  0.03460  0.41700  1.0000
  H   H5        1.0  0.96900  0.96500  0.58300  1.0000
  H   H6        1.0  0.72900  0.96700  0.58600  1.0000
  H   H7        1.0  0.27100  0.46700  0.91400  1.0000
  H   H8        1.0  0.03060  0.46500  0.91700  1.0000
  K   K1        1.0  0.96200  0.84800  0.19800  1.0000
  K   K2        1.0  0.03750  0.34800  0.30200  1.0000
  K   K3        1.0  0.96200  0.65200  0.69800  1.0000
  K   K4        1.0  0.03750  0.15200  0.80200  1.0000
  O   O1        1.0  0.24800  0.00827  0.00074  1.0000
  O   O2        1.0  0.45400  0.76300  0.01010  1.0000
  O   O3        1.0  0.94500  0.24200  0.04130  1.0000
  O   O4        1.0  0.82400  0.59100  0.05620  1.0000
  O   O5        1.0  0.29600  0.81500  0.13300  1.0000
  O   O6        1.0  0.60500  0.44800  0.15300  1.0000
  O   O7        1.0  0.21200  0.45200  0.16900  1.0000
  O   O8        1.0  0.65500  0.11200  0.19600  1.0000
  O   O9        1.0  0.26300  0.13200  0.22400  1.0000
  O   O10       1.0  0.73700  0.63200  0.27600  1.0000
  O   O11       1.0  0.34500  0.61200  0.30400  1.0000
  O   O12       1.0  0.78800  0.95200  0.33100  1.0000
  O   O13       1.0  0.39500  0.94800  0.34700  1.0000
  O   O14       1.0  0.70400  0.31500  0.36700  1.0000
  O   O15       1.0  0.17600  0.09070  0.44400  1.0000
  O   O16       1.0  0.05510  0.74200  0.45900  1.0000
  O   O17       1.0  0.54600  0.26300  0.49000  1.0000
  O   O18       1.0  0.75200  0.50800  0.49900  1.0000
  O   O19       1.0  0.24800  0.49200  0.50100  1.0000
  O   O20       1.0  0.45400  0.73700  0.51000  1.0000
  O   O21       1.0  0.94500  0.25800  0.54100  1.0000
  O   O22       1.0  0.82400  0.90900  0.55600  1.0000
  O   O23       1.0  0.29600  0.68500  0.63300  1.0000
  O   O24       1.0  0.60500  0.05170  0.65300  1.0000
  O   O25       1.0  0.21200  0.04820  0.66900  1.0000
  O   O26       1.0  0.65500  0.38800  0.69600  1.0000
  O   O27       1.0  0.26300  0.36800  0.72400  1.0000
  O   O28       1.0  0.73700  0.86800  0.77600  1.0000
  O   O29       1.0  0.34500  0.88800  0.80400  1.0000
  O   O30       1.0  0.78800  0.54800  0.83100  1.0000
  O   O31       1.0  0.39500  0.55200  0.84700  1.0000
  O   O32       1.0  0.70400  0.18500  0.86700  1.0000
  O   O33       1.0  0.17600  0.40900  0.94400  1.0000
  O   O34       1.0  0.05520  0.75800  0.95900  1.0000
  O   O35       1.0  0.54600  0.23700  0.99000  1.0000
  O   O36       1.0  0.75200  0.99200  0.99900  1.0000
  S   S1        1.0  0.26400  0.83500  0.02710  1.0000
  S   S2        1.0  0.73600  0.33500  0.47300  1.0000
  S   S3        1.0  0.26400  0.66500  0.52700  1.0000
  S   S4        1.0  0.73600  0.16500  0.97300  1.0000
  Tb  Tb1       1.0  0.32700  0.24700  0.08420  1.0000
  Tb  Tb2       1.0  0.67300  0.74700  0.41600  1.0000
  Tb  Tb3       1.0  0.32700  0.25300  0.58400  1.0000
  Tb  Tb4       1.0  0.67300  0.75300  0.91600  1.0000
