data_image0
_chemical_formula_structural       C12H18Na6O24
_chemical_formula_sum              "C12 H18 Na6 O24"
_cell_length_a       8.66436
_cell_length_b       8.97954
_cell_length_c       9.27984
_cell_angle_alpha    85.5596
_cell_angle_beta     111.166
_cell_angle_gamma    110.652

_space_group_name_H-M_alt    "P 1"
_space_group_IT_number       1

loop_
  _space_group_symop_operation_xyz
  'x, y, z'

loop_
  _atom_site_type_symbol
  _atom_site_label
  _atom_site_symmetry_multiplicity
  _atom_site_fract_x
  _atom_site_fract_y
  _atom_site_fract_z
  _atom_site_occupancy
  C   C1        1.0  0.19500  0.63800  0.10800  1.0000
  C   C2        1.0  0.52700  0.12900  0.13300  1.0000
  C   C3        1.0  0.95800  0.03610  0.16100  1.0000
  C   C4        1.0  0.72600  0.57200  0.19200  1.0000
  C   C5        1.0  0.64500  0.78500  0.44000  1.0000
  C   C6        1.0  0.91000  0.26000  0.45300  1.0000
  C   C7        1.0  0.09040  0.74000  0.54700  1.0000
  C   C8        1.0  0.35500  0.21500  0.56000  1.0000
  C   C9        1.0  0.27400  0.42800  0.80800  1.0000
  C   C10       1.0  0.04160  0.96400  0.83900  1.0000
  C   C11       1.0  0.47300  0.87100  0.86700  1.0000
  C   C12       1.0  0.80500  0.36200  0.89200  1.0000
  H   H1        1.0  0.50000  0.50000  0.00000  1.0000
  H   H2        1.0  0.06230  0.80000  0.00483  1.0000
  H   H3        1.0  0.85200  0.40600  0.01460  1.0000
  H   H4        1.0  0.55400  0.20800  0.04140  1.0000
  H   H5        1.0  0.82100  0.96800  0.08700  1.0000
  H   H6        1.0  0.86800  0.64300  0.24200  1.0000
  H   H7        1.0  0.60800  0.97800  0.28500  1.0000
  H   H8        1.0  0.73300  0.78400  0.37900  1.0000
  H   H9        1.0  0.93500  0.15600  0.42500  1.0000
  H   H10       1.0  1.00000  0.50000  0.50000  1.0000
  H   H11       1.0  0.06490  0.84400  0.57500  1.0000
  H   H12       1.0  0.26700  0.21600  0.62100  1.0000
  H   H13       1.0  0.39200  0.02160  0.71500  1.0000
  H   H14       1.0  0.13200  0.35700  0.75800  1.0000
  H   H15       1.0  0.17900  0.03220  0.91300  1.0000
  H   H16       1.0  0.44600  0.79200  0.95900  1.0000
  H   H17       1.0  0.14800  0.59400  0.98500  1.0000
  H   H18       1.0  0.93800  0.20000  0.99500  1.0000
  Na  Na1       1.0  0.33000  0.33900  0.19900  1.0000
  Na  Na2       1.0  0.30500  0.94500  0.34800  1.0000
  Na  Na3       1.0  0.30900  0.55000  0.47000  1.0000
  Na  Na4       1.0  0.69100  0.45000  0.53000  1.0000
  Na  Na5       1.0  0.69500  0.05480  0.65200  1.0000
  Na  Na6       1.0  0.67000  0.66100  0.80100  1.0000
  O   O1        1.0  0.65500  0.58500  0.04460  1.0000
  O   O2        1.0  0.03260  0.17100  0.10800  1.0000
  O   O3        1.0  0.15800  0.76000  0.13000  1.0000
  O   O4        1.0  0.40700  0.12200  0.17900  1.0000
  O   O5        1.0  0.63100  0.04700  0.18500  1.0000
  O   O6        1.0  0.27600  0.56900  0.21300  1.0000
  O   O7        1.0  0.64400  0.48700  0.27200  1.0000
  O   O8        1.0  0.03410  0.98600  0.28400  1.0000
  O   O9        1.0  0.57700  0.89600  0.40600  1.0000
  O   O10       1.0  0.01880  0.39700  0.43700  1.0000
  O   O11       1.0  0.38100  0.31700  0.46400  1.0000
  O   O12       1.0  0.78600  0.24400  0.49800  1.0000
  O   O13       1.0  0.21400  0.75600  0.50200  1.0000
  O   O14       1.0  0.61900  0.68300  0.53600  1.0000
  O   O15       1.0  0.98100  0.60300  0.56300  1.0000
  O   O16       1.0  0.42300  0.10400  0.59400  1.0000
  O   O17       1.0  0.96600  0.01440  0.71600  1.0000
  O   O18       1.0  0.35600  0.51300  0.72800  1.0000
  O   O19       1.0  0.72400  0.43100  0.78700  1.0000
  O   O20       1.0  0.36900  0.95300  0.81500  1.0000
  O   O21       1.0  0.59300  0.87800  0.82100  1.0000
  O   O22       1.0  0.84200  0.24000  0.87000  1.0000
  O   O23       1.0  0.96700  0.82900  0.89200  1.0000
  O   O24       1.0  0.34500  0.41500  0.95500  1.0000
