data_image0
_chemical_formula_structural       C4H24N24O16
_chemical_formula_sum              "C4 H24 N24 O16"
_cell_length_a       7.98729
_cell_length_b       8.51718
_cell_length_c       9.52772
_cell_angle_alpha    87.1632
_cell_angle_beta     69.9841
_cell_angle_gamma    70.7693

_space_group_name_H-M_alt    "P 1"
_space_group_IT_number       1

loop_
  _space_group_symop_operation_xyz
  'x, y, z'

loop_
  _atom_site_type_symbol
  _atom_site_label
  _atom_site_symmetry_multiplicity
  _atom_site_fract_x
  _atom_site_fract_y
  _atom_site_fract_z
  _atom_site_occupancy
  C   C1        1.0  0.14700  0.52900  0.10800  1.0000
  C   C2        1.0  0.02170  0.83500  0.42900  1.0000
  C   C3        1.0  0.97800  0.16500  0.57100  1.0000
  C   C4        1.0  0.85300  0.47100  0.89200  1.0000
  H   H1        1.0  0.40700  0.34700  0.03850  1.0000
  H   H2        1.0  0.93800  0.31000  0.04000  1.0000
  H   H3        1.0  0.63000  0.50300  0.08950  1.0000
  H   H4        1.0  0.89600  0.71800  0.14100  1.0000
  H   H5        1.0  0.24300  0.80800  0.23000  1.0000
  H   H6        1.0  0.92200  0.94200  0.26400  1.0000
  H   H7        1.0  0.20100  0.41300  0.28600  1.0000
  H   H8        1.0  0.97100  0.54400  0.32500  1.0000
  H   H9        1.0  0.16300  0.15100  0.35600  1.0000
  H   H10       1.0  0.92500  0.23500  0.37700  1.0000
  H   H11       1.0  0.30400  0.74900  0.39200  1.0000
  H   H12       1.0  0.74900  0.94000  0.43500  1.0000
  H   H13       1.0  0.25100  0.06030  0.56500  1.0000
  H   H14       1.0  0.69600  0.25100  0.60800  1.0000
  H   H15       1.0  0.07510  0.76500  0.62300  1.0000
  H   H16       1.0  0.83700  0.84900  0.64400  1.0000
  H   H17       1.0  0.02910  0.45600  0.67500  1.0000
  H   H18       1.0  0.79900  0.58700  0.71400  1.0000
  H   H19       1.0  0.07800  0.05770  0.73600  1.0000
  H   H20       1.0  0.75700  0.19200  0.77000  1.0000
  H   H21       1.0  0.10400  0.28200  0.85900  1.0000
  H   H22       1.0  0.37000  0.49700  0.91100  1.0000
  H   H23       1.0  0.06170  0.69000  0.96000  1.0000
  H   H24       1.0  0.59300  0.65300  0.96100  1.0000
  N   N1        1.0  0.25100  0.95700  0.00155  1.0000
  N   N2        1.0  0.31700  0.44800  0.00942  1.0000
  N   N3        1.0  0.02700  0.65700  0.06740  1.0000
  N   N4        1.0  0.70000  0.97900  0.13400  1.0000
  N   N5        1.0  0.51500  0.04540  0.22300  1.0000
  N   N6        1.0  0.09690  0.47800  0.24700  1.0000
  N   N7        1.0  0.60500  0.34200  0.32100  1.0000
  N   N8        1.0  0.20300  0.79600  0.34400  1.0000
  N   N9        1.0  0.88700  0.89900  0.36800  1.0000
  N   N10       1.0  0.02560  0.19400  0.42700  1.0000
  N   N11       1.0  0.62600  0.65400  0.44800  1.0000
  N   N12       1.0  0.56200  0.30900  0.46800  1.0000
  N   N13       1.0  0.43800  0.69100  0.53200  1.0000
  N   N14       1.0  0.37400  0.34600  0.55200  1.0000
  N   N15       1.0  0.97400  0.80600  0.57300  1.0000
  N   N16       1.0  0.11300  0.10100  0.63200  1.0000
  N   N17       1.0  0.79700  0.20400  0.65600  1.0000
  N   N18       1.0  0.39500  0.65800  0.67900  1.0000
  N   N19       1.0  0.90300  0.52200  0.75300  1.0000
  N   N20       1.0  0.48500  0.95500  0.77700  1.0000
  N   N21       1.0  0.30000  0.02140  0.86600  1.0000
  N   N22       1.0  0.97300  0.34300  0.93300  1.0000
  N   N23       1.0  0.68300  0.55200  0.99100  1.0000
  N   N24       1.0  0.74900  0.04250  0.99800  1.0000
  O   O1        1.0  0.34400  0.81800  0.03020  1.0000
  O   O2        1.0  0.09530  0.04400  0.09220  1.0000
  O   O3        1.0  0.38300  0.11300  0.17400  1.0000
  O   O4        1.0  0.78100  0.29700  0.25300  1.0000
  O   O5        1.0  0.48900  0.41400  0.25900  1.0000
  O   O6        1.0  0.65200  0.66700  0.31100  1.0000
  O   O7        1.0  0.48700  0.02290  0.35900  1.0000
  O   O8        1.0  0.75700  0.61700  0.50000  1.0000
  O   O9        1.0  0.24300  0.38300  0.50000  1.0000
  O   O10       1.0  0.51300  0.97700  0.64100  1.0000
  O   O11       1.0  0.34800  0.33300  0.68900  1.0000
  O   O12       1.0  0.51100  0.58600  0.74100  1.0000
  O   O13       1.0  0.21900  0.70300  0.74700  1.0000
  O   O14       1.0  0.61700  0.88700  0.82600  1.0000
  O   O15       1.0  0.90500  0.95600  0.90800  1.0000
  O   O16       1.0  0.65600  0.18200  0.97000  1.0000
