data_image0
_chemical_formula_structural       Au6C18H36N6O6
_chemical_formula_sum              "Au6 C18 H36 N6 O6"
_cell_length_a       7.88043
_cell_length_b       9.84144
_cell_length_c       10.4708
_cell_angle_alpha    65.2742
_cell_angle_beta     72.3449
_cell_angle_gamma    74.9442

_space_group_name_H-M_alt    "P 1"
_space_group_IT_number       1

loop_
  _space_group_symop_operation_xyz
  'x, y, z'

loop_
  _atom_site_type_symbol
  _atom_site_label
  _atom_site_symmetry_multiplicity
  _atom_site_fract_x
  _atom_site_fract_y
  _atom_site_fract_z
  _atom_site_occupancy
  Au  Au1       1.0  0.09290  0.62700  0.01960  1.0000
  Au  Au2       1.0  0.77800  0.90600  0.09530  1.0000
  Au  Au3       1.0  0.96900  0.03320  0.24200  1.0000
  Au  Au4       1.0  0.03100  0.96700  0.75800  1.0000
  Au  Au5       1.0  0.22200  0.09420  0.90500  1.0000
  Au  Au6       1.0  0.90700  0.37300  0.98000  1.0000
  C   C1        1.0  0.27900  0.90000  0.06570  1.0000
  C   C2        1.0  0.47000  0.19000  0.09000  1.0000
  C   C3        1.0  0.60300  0.44800  0.21600  1.0000
  C   C4        1.0  0.94800  0.59000  0.22100  1.0000
  C   C5        1.0  0.77100  0.19400  0.28600  1.0000
  C   C6        1.0  0.10400  0.33800  0.30500  1.0000
  C   C7        1.0  0.23500  0.73100  0.31300  1.0000
  C   C8        1.0  0.72900  0.66300  0.40600  1.0000
  C   C9        1.0  0.31300  0.96900  0.46800  1.0000
  C   C10       1.0  0.68700  0.03140  0.53200  1.0000
  C   C11       1.0  0.27100  0.33700  0.59400  1.0000
  C   C12       1.0  0.76500  0.26900  0.68700  1.0000
  C   C13       1.0  0.89600  0.66200  0.69500  1.0000
  C   C14       1.0  0.22900  0.80600  0.71400  1.0000
  C   C15       1.0  0.05190  0.41000  0.77900  1.0000
  C   C16       1.0  0.39700  0.55200  0.78400  1.0000
  C   C17       1.0  0.53000  0.81000  0.91000  1.0000
  C   C18       1.0  0.72100  0.10000  0.93400  1.0000
  H   H1        1.0  0.39000  0.30100  0.08250  1.0000
  H   H2        1.0  0.38000  0.10900  0.11700  1.0000
  H   H3        1.0  0.49300  0.46400  0.16300  1.0000
  H   H4        1.0  0.65600  0.55500  0.16800  1.0000
  H   H5        1.0  0.55100  0.15100  0.17100  1.0000
  H   H6        1.0  0.09220  0.32100  0.21100  1.0000
  H   H7        1.0  0.23800  0.63300  0.28600  1.0000
  H   H8        1.0  0.23800  0.36500  0.28700  1.0000
  H   H9        1.0  0.37000  0.72400  0.32700  1.0000
  H   H10       1.0  0.54700  0.42200  0.33100  1.0000
  H   H11       1.0  0.42400  0.96600  0.37600  1.0000
  H   H12       1.0  0.07990  0.23600  0.40100  1.0000
  H   H13       1.0  0.13700  0.72300  0.41400  1.0000
  H   H14       1.0  0.65400  0.76800  0.41900  1.0000
  H   H15       1.0  0.63400  0.58400  0.43700  1.0000
  H   H16       1.0  0.18400  0.98000  0.44000  1.0000
  H   H17       1.0  0.82100  0.60900  0.48100  1.0000
  H   H18       1.0  0.31000  0.06440  0.49800  1.0000
  H   H19       1.0  0.69000  0.93600  0.50200  1.0000
  H   H20       1.0  0.17900  0.39100  0.51900  1.0000
  H   H21       1.0  0.81600  0.02030  0.56000  1.0000
  H   H22       1.0  0.36600  0.41600  0.56300  1.0000
  H   H23       1.0  0.34600  0.23200  0.58100  1.0000
  H   H24       1.0  0.86300  0.27700  0.58600  1.0000
  H   H25       1.0  0.92000  0.76400  0.59900  1.0000
  H   H26       1.0  0.57600  0.03380  0.62400  1.0000
  H   H27       1.0  0.45300  0.57800  0.66900  1.0000
  H   H28       1.0  0.63000  0.27600  0.67300  1.0000
  H   H29       1.0  0.76200  0.63500  0.71300  1.0000
  H   H30       1.0  0.76200  0.36700  0.71400  1.0000
  H   H31       1.0  0.90800  0.67900  0.78900  1.0000
  H   H32       1.0  0.44900  0.84900  0.82900  1.0000
  H   H33       1.0  0.34400  0.44500  0.83200  1.0000
  H   H34       1.0  0.50700  0.53600  0.83700  1.0000
  H   H35       1.0  0.62000  0.89100  0.88300  1.0000
  H   H36       1.0  0.61000  0.69900  0.91700  1.0000
  N   N1        1.0  0.74600  0.32900  0.18700  1.0000
  N   N2        1.0  0.18600  0.87300  0.19900  1.0000
  N   N3        1.0  0.82800  0.69600  0.25700  1.0000
  N   N4        1.0  0.17200  0.30400  0.74300  1.0000
  N   N5        1.0  0.81400  0.12700  0.80100  1.0000
  N   N6        1.0  0.25400  0.67100  0.81300  1.0000
  O   O1        1.0  0.41600  0.78800  0.05050  1.0000
  O   O2        1.0  0.96600  0.45600  0.33300  1.0000
  O   O3        1.0  0.65400  0.17200  0.41600  1.0000
  O   O4        1.0  0.34600  0.82800  0.58400  1.0000
  O   O5        1.0  0.03360  0.54400  0.66700  1.0000
  O   O6        1.0  0.58400  0.21200  0.95000  1.0000
