data_image0
_chemical_formula_structural       Ag4C8H24N20O16
_chemical_formula_sum              "Ag4 C8 H24 N20 O16"
_cell_length_a       8.7174
_cell_length_b       8.06839
_cell_length_c       9.7772
_cell_angle_alpha    90
_cell_angle_beta     108.19
_cell_angle_gamma    90

_space_group_name_H-M_alt    "P 1"
_space_group_IT_number       1

loop_
  _space_group_symop_operation_xyz
  'x, y, z'

loop_
  _atom_site_type_symbol
  _atom_site_label
  _atom_site_symmetry_multiplicity
  _atom_site_fract_x
  _atom_site_fract_y
  _atom_site_fract_z
  _atom_site_occupancy
  Ag  Ag1       1.0  0.36100  0.05200  0.05230  1.0000
  Ag  Ag2       1.0  0.13900  0.55200  0.44800  1.0000
  Ag  Ag3       1.0  0.86100  0.44800  0.55200  1.0000
  Ag  Ag4       1.0  0.63900  0.94800  0.94800  1.0000
  C   C1        1.0  0.95500  0.05570  0.17400  1.0000
  C   C2        1.0  0.41800  0.54700  0.18400  1.0000
  C   C3        1.0  0.08210  0.04750  0.31600  1.0000
  C   C4        1.0  0.54500  0.55600  0.32600  1.0000
  C   C5        1.0  0.45500  0.44400  0.67400  1.0000
  C   C6        1.0  0.91800  0.95300  0.68400  1.0000
  C   C7        1.0  0.58200  0.45300  0.81600  1.0000
  C   C8        1.0  0.04530  0.94400  0.82600  1.0000
  H   H1        1.0  0.09720  0.83600  0.02300  1.0000
  H   H2        1.0  0.07650  0.24200  0.10600  1.0000
  H   H3        1.0  0.93200  0.47400  0.18000  1.0000
  H   H4        1.0  0.98600  0.67000  0.18700  1.0000
  H   H5        1.0  0.82400  0.89000  0.23000  1.0000
  H   H6        1.0  0.65100  0.10800  0.23900  1.0000
  H   H7        1.0  0.84900  0.60800  0.26100  1.0000
  H   H8        1.0  0.67600  0.39000  0.27000  1.0000
  H   H9        1.0  0.51400  0.17000  0.31300  1.0000
  H   H10       1.0  0.56800  0.97400  0.32000  1.0000
  H   H11       1.0  0.42400  0.74200  0.39400  1.0000
  H   H12       1.0  0.40300  0.33600  0.47700  1.0000
  H   H13       1.0  0.59700  0.66400  0.52300  1.0000
  H   H14       1.0  0.57600  0.25800  0.60600  1.0000
  H   H15       1.0  0.43200  0.02560  0.68000  1.0000
  H   H16       1.0  0.48600  0.83000  0.68700  1.0000
  H   H17       1.0  0.32400  0.61000  0.73000  1.0000
  H   H18       1.0  0.15100  0.39200  0.73900  1.0000
  H   H19       1.0  0.34900  0.89200  0.76100  1.0000
  H   H20       1.0  0.17600  0.11000  0.77000  1.0000
  H   H21       1.0  0.01420  0.33000  0.81300  1.0000
  H   H22       1.0  0.06770  0.52600  0.82000  1.0000
  H   H23       1.0  0.92400  0.75800  0.89400  1.0000
  H   H24       1.0  0.90300  0.16400  0.97700  1.0000
  N   N1        1.0  0.43900  0.64300  0.07390  1.0000
  N   N2        1.0  0.98100  0.16100  0.07970  1.0000
  N   N3        1.0  0.82700  0.96100  0.14400  1.0000
  N   N4        1.0  0.29000  0.44300  0.16700  1.0000
  N   N5        1.0  0.95600  0.57700  0.24500  1.0000
  N   N6        1.0  0.54400  0.07670  0.25500  1.0000
  N   N7        1.0  0.21000  0.94300  0.33300  1.0000
  N   N8        1.0  0.67300  0.46100  0.35600  1.0000
  N   N9        1.0  0.51900  0.66100  0.42000  1.0000
  N   N10       1.0  0.06140  0.14300  0.42600  1.0000
  N   N11       1.0  0.93900  0.85700  0.57400  1.0000
  N   N12       1.0  0.48100  0.33900  0.58000  1.0000
  N   N13       1.0  0.32700  0.53900  0.64400  1.0000
  N   N14       1.0  0.79000  0.05660  0.66700  1.0000
  N   N15       1.0  0.45600  0.92300  0.74500  1.0000
  N   N16       1.0  0.04370  0.42300  0.75500  1.0000
  N   N17       1.0  0.71000  0.55700  0.83300  1.0000
  N   N18       1.0  0.17300  0.03860  0.85600  1.0000
  N   N19       1.0  0.01870  0.83900  0.92000  1.0000
  N   N20       1.0  0.56100  0.35700  0.92600  1.0000
  O   O1        1.0  0.66100  0.35100  0.05080  1.0000
  O   O2        1.0  0.16900  0.44100  0.05600  1.0000
  O   O3        1.0  0.56900  0.72600  0.11000  1.0000
  O   O4        1.0  0.20400  0.84500  0.22700  1.0000
  O   O5        1.0  0.29600  0.34500  0.27300  1.0000
  O   O6        1.0  0.93100  0.22600  0.39000  1.0000
  O   O7        1.0  0.33100  0.94100  0.44400  1.0000
  O   O8        1.0  0.83900  0.85100  0.44900  1.0000
  O   O9        1.0  0.16100  0.14900  0.55100  1.0000
  O   O10       1.0  0.66900  0.05940  0.55600  1.0000
  O   O11       1.0  0.06950  0.77400  0.61000  1.0000
  O   O12       1.0  0.70400  0.65500  0.72700  1.0000
  O   O13       1.0  0.79600  0.15500  0.77300  1.0000
  O   O14       1.0  0.43100  0.27400  0.89000  1.0000
  O   O15       1.0  0.83100  0.55900  0.94400  1.0000
  O   O16       1.0  0.33900  0.64900  0.94900  1.0000
