data_image0
_chemical_formula_structural       Li7O6W
_chemical_formula_sum              "Li7 O6 W1"
_cell_length_a       5.49109
_cell_length_b       5.49074
_cell_length_c       5.77921
_cell_angle_alpha    61.6399
_cell_angle_beta     118.363
_cell_angle_gamma    120

_space_group_name_H-M_alt    "P 1"
_space_group_IT_number       1

loop_
  _space_group_symop_operation_xyz
  'x, y, z'

loop_
  _atom_site_type_symbol
  _atom_site_label
  _atom_site_symmetry_multiplicity
  _atom_site_fract_x
  _atom_site_fract_y
  _atom_site_fract_z
  _atom_site_occupancy
  Li  Li1       1.0  0.34300  0.65700  0.02950  1.0000
  Li  Li2       1.0  0.76300  0.49100  0.33900  1.0000
  Li  Li3       1.0  0.50900  0.93300  0.33900  1.0000
  Li  Li4       1.0  0.06670  0.23700  0.33900  1.0000
  Li  Li5       1.0  0.87600  0.72700  0.65500  1.0000
  Li  Li6       1.0  0.27300  0.49400  0.65500  1.0000
  Li  Li7       1.0  0.50600  0.12400  0.65500  1.0000
  O   O1        1.0  0.76700  0.88700  0.24100  1.0000
  O   O2        1.0  0.11300  0.63900  0.24100  1.0000
  O   O3        1.0  0.36100  0.23300  0.24100  1.0000
  O   O4        1.0  0.62300  0.79500  0.75300  1.0000
  O   O5        1.0  0.92500  0.37700  0.75300  1.0000
  O   O6        1.0  0.20500  0.07460  0.75300  1.0000
  W   W1        1.0  0.99900  0.00102  0.99700  1.0000
