data_image0
_chemical_formula_structural       Ca2Cd2O2Te2
_chemical_formula_sum              "Ca2 Cd2 O2 Te2"
_cell_length_a       3.99146
_cell_length_b       6.36969
_cell_length_c       7.27006
_cell_angle_alpha    90
_cell_angle_beta     74.067
_cell_angle_gamma    90

_space_group_name_H-M_alt    "P 1"
_space_group_IT_number       1

loop_
  _space_group_symop_operation_xyz
  'x, y, z'

loop_
  _atom_site_type_symbol
  _atom_site_label
  _atom_site_symmetry_multiplicity
  _atom_site_fract_x
  _atom_site_fract_y
  _atom_site_fract_z
  _atom_site_occupancy
  Ca  Ca1       1.0  0.42600  0.75000  0.14900  1.0000
  Ca  Ca2       1.0  0.57400  0.25000  0.85100  1.0000
  Cd  Cd1       1.0  0.88600  0.25000  0.22800  1.0000
  Cd  Cd2       1.0  0.11400  0.75000  0.77200  1.0000
  O   O1        1.0  0.00000  0.00000  0.00000  1.0000
  O   O2        1.0  0.00000  0.50000  0.00000  1.0000
  Te  Te1       1.0  0.25500  0.25000  0.49100  1.0000
  Te  Te2       1.0  0.74500  0.75000  0.50900  1.0000
