data_image0
_chemical_formula_structural       C2Re4
_chemical_formula_sum              "C2 Re4"
_cell_length_a       2.86232
_cell_length_b       2.86231
_cell_length_c       9.90251
_cell_angle_alpha    90
_cell_angle_beta     90
_cell_angle_gamma    120

_space_group_name_H-M_alt    "P 1"
_space_group_IT_number       1

loop_
  _space_group_symop_operation_xyz
  'x, y, z'

loop_
  _atom_site_type_symbol
  _atom_site_label
  _atom_site_symmetry_multiplicity
  _atom_site_fract_x
  _atom_site_fract_y
  _atom_site_fract_z
  _atom_site_occupancy
  C   C1        1.0  0.33300  0.66700  0.25000  1.0000
  C   C2        1.0  0.66700  0.33300  0.75000  1.0000
  Re  Re1       1.0  0.66700  0.33300  0.10800  1.0000
  Re  Re2       1.0  0.66700  0.33300  0.39200  1.0000
  Re  Re3       1.0  0.33300  0.66700  0.60800  1.0000
  Re  Re4       1.0  0.33300  0.66700  0.89200  1.0000
