data_image0
_chemical_formula_structural       Rh5Sb5Ta4
_chemical_formula_sum              "Rh5 Sb5 Ta4"
_cell_length_a       6.20313
_cell_length_b       7.54598
_cell_length_c       7.54598
_cell_angle_alpha    80.2738
_cell_angle_beta     114.269
_cell_angle_gamma    114.269

_space_group_name_H-M_alt    "P 1"
_space_group_IT_number       1

loop_
  _space_group_symop_operation_xyz
  'x, y, z'

loop_
  _atom_site_type_symbol
  _atom_site_label
  _atom_site_symmetry_multiplicity
  _atom_site_fract_x
  _atom_site_fract_y
  _atom_site_fract_z
  _atom_site_occupancy
  Rh  Rh1       1.0  0.94200  0.32200  0.10600  1.0000
  Rh  Rh2       1.0  0.38000  0.89400  0.32200  1.0000
  Rh  Rh3       1.0  0.75000  0.50000  0.50000  1.0000
  Rh  Rh4       1.0  0.16400  0.10600  0.67800  1.0000
  Rh  Rh5       1.0  0.51400  0.67800  0.89400  1.0000
  Sb  Sb1       1.0  0.50000  0.00000  0.00000  1.0000
  Sb  Sb2       1.0  0.90300  0.62600  0.19400  1.0000
  Sb  Sb3       1.0  0.29200  0.19400  0.37400  1.0000
  Sb  Sb4       1.0  0.72300  0.80600  0.62600  1.0000
  Sb  Sb5       1.0  0.08230  0.37400  0.80600  1.0000
  Ta  Ta1       1.0  0.39800  0.60100  0.20300  1.0000
  Ta  Ta2       1.0  0.80500  0.20300  0.39900  1.0000
  Ta  Ta3       1.0  0.20300  0.79700  0.60100  1.0000
  Ta  Ta4       1.0  0.59400  0.39900  0.79700  1.0000
