data_image0
_chemical_formula_structural       HLiNd2O3
_chemical_formula_sum              "H1 Li1 Nd2 O3"
_cell_length_a       3.47621
_cell_length_b       3.68116
_cell_length_c       6.79757
_cell_angle_alpha    105.71
_cell_angle_beta     104.815
_cell_angle_gamma    90

_space_group_name_H-M_alt    "P 1"
_space_group_IT_number       1

loop_
  _space_group_symop_operation_xyz
  'x, y, z'

loop_
  _atom_site_type_symbol
  _atom_site_label
  _atom_site_symmetry_multiplicity
  _atom_site_fract_x
  _atom_site_fract_y
  _atom_site_fract_z
  _atom_site_occupancy
  H   H1        1.0  0.50000  0.00000  0.00000  1.0000
  Li  Li1       1.0  0.00000  0.00000  0.00000  1.0000
  Nd  Nd1       1.0  0.63600  0.63600  0.27100  1.0000
  Nd  Nd2       1.0  0.36400  0.36400  0.72900  1.0000
  O   O1        1.0  0.00000  0.50000  0.00000  1.0000
  O   O2        1.0  0.17600  0.17600  0.35100  1.0000
  O   O3        1.0  0.82400  0.82400  0.64900  1.0000
