data_image0
_chemical_formula_structural       Gd2O2Te2Tl2
_chemical_formula_sum              "Gd2 O2 Te2 Tl2"
_cell_length_a       4.91708
_cell_length_b       8.2035
_cell_length_c       6.83053
_cell_angle_alpha    90
_cell_angle_beta     90
_cell_angle_gamma    90

_space_group_name_H-M_alt    "P 1"
_space_group_IT_number       1

loop_
  _space_group_symop_operation_xyz
  'x, y, z'

loop_
  _atom_site_type_symbol
  _atom_site_label
  _atom_site_symmetry_multiplicity
  _atom_site_fract_x
  _atom_site_fract_y
  _atom_site_fract_z
  _atom_site_occupancy
  Gd  Gd1       1.0  0.50000  0.87300  0.03360  1.0000
  Gd  Gd2       1.0  0.50000  0.12700  0.53400  1.0000
  O   O1        1.0  0.50000  0.07210  0.23100  1.0000
  O   O2        1.0  0.50000  0.92800  0.73100  1.0000
  Te  Te1       1.0  0.00000  0.66900  0.10900  1.0000
  Te  Te2       1.0  0.00000  0.33100  0.60900  1.0000
  Tl  Tl1       1.0  0.00000  0.26000  0.11800  1.0000
  Tl  Tl2       1.0  0.00000  0.74000  0.61800  1.0000
