data_image0
_chemical_formula_structural       O2Te2Tl2Yb2
_chemical_formula_sum              "O2 Te2 Tl2 Yb2"
_cell_length_a       5.24058
_cell_length_b       8.76116
_cell_length_c       4.52795
_cell_angle_alpha    90
_cell_angle_beta     90
_cell_angle_gamma    90

_space_group_name_H-M_alt    "P 1"
_space_group_IT_number       1

loop_
  _space_group_symop_operation_xyz
  'x, y, z'

loop_
  _atom_site_type_symbol
  _atom_site_label
  _atom_site_symmetry_multiplicity
  _atom_site_fract_x
  _atom_site_fract_y
  _atom_site_fract_z
  _atom_site_occupancy
  O   O1        1.0  0.50000  0.10800  0.12400  1.0000
  O   O2        1.0  0.50000  0.89200  0.62400  1.0000
  Te  Te1       1.0  0.00000  0.63500  0.12200  1.0000
  Te  Te2       1.0  0.00000  0.36500  0.62200  1.0000
  Tl  Tl1       1.0  0.00000  0.14000  0.12100  1.0000
  Tl  Tl2       1.0  0.00000  0.86000  0.62100  1.0000
  Yb  Yb1       1.0  0.50000  0.85500  0.12400  1.0000
  Yb  Yb2       1.0  0.50000  0.14500  0.62400  1.0000
