data_image0
_chemical_formula_structural       N2O2Ti2Tl2
_chemical_formula_sum              "N2 O2 Ti2 Tl2"
_cell_length_a       3.9248
_cell_length_b       3.9248
_cell_length_c       7.74732
_cell_angle_alpha    90
_cell_angle_beta     90
_cell_angle_gamma    90

_space_group_name_H-M_alt    "P 1"
_space_group_IT_number       1

loop_
  _space_group_symop_operation_xyz
  'x, y, z'

loop_
  _atom_site_type_symbol
  _atom_site_label
  _atom_site_symmetry_multiplicity
  _atom_site_fract_x
  _atom_site_fract_y
  _atom_site_fract_z
  _atom_site_occupancy
  N   N1        1.0  0.75000  0.75000  0.43100  1.0000
  N   N2        1.0  0.25000  0.25000  0.56900  1.0000
  O   O1        1.0  0.75000  0.25000  0.00000  1.0000
  O   O2        1.0  0.25000  0.75000  0.00000  1.0000
  Ti  Ti1       1.0  0.75000  0.25000  0.50000  1.0000
  Ti  Ti2       1.0  0.25000  0.75000  0.50000  1.0000
  Tl  Tl1       1.0  0.25000  0.25000  0.15000  1.0000
  Tl  Tl2       1.0  0.75000  0.75000  0.85000  1.0000
