data_image0
_chemical_formula_structural       Fe2N2O2Sn2
_chemical_formula_sum              "Fe2 N2 O2 Sn2"
_cell_length_a       3.39393
_cell_length_b       5.81046
_cell_length_c       6.03226
_cell_angle_alpha    90
_cell_angle_beta     90
_cell_angle_gamma    90

_space_group_name_H-M_alt    "P 1"
_space_group_IT_number       1

loop_
  _space_group_symop_operation_xyz
  'x, y, z'

loop_
  _atom_site_type_symbol
  _atom_site_label
  _atom_site_symmetry_multiplicity
  _atom_site_fract_x
  _atom_site_fract_y
  _atom_site_fract_z
  _atom_site_occupancy
  Fe  Fe1       1.0  0.00000  0.51300  0.35700  1.0000
  Fe  Fe2       1.0  0.00000  0.01300  0.64300  1.0000
  N   N1        1.0  1.00000  0.86300  0.33600  1.0000
  N   N2        1.0  1.00000  0.36300  0.66400  1.0000
  O   O1        1.0  0.50000  0.37900  0.17800  1.0000
  O   O2        1.0  0.50000  0.87900  0.82200  1.0000
  Sn  Sn1       1.0  0.50000  0.99900  0.16400  1.0000
  Sn  Sn2       1.0  0.50000  0.49900  0.83600  1.0000
