data_image0
_chemical_formula_structural       Re4Si4
_chemical_formula_sum              "Re4 Si4"
_cell_length_a       4.7975
_cell_length_b       4.7975
_cell_length_c       4.7975
_cell_angle_alpha    90
_cell_angle_beta     90
_cell_angle_gamma    90

_space_group_name_H-M_alt    "P 1"
_space_group_IT_number       1

loop_
  _space_group_symop_operation_xyz
  'x, y, z'

loop_
  _atom_site_type_symbol
  _atom_site_label
  _atom_site_symmetry_multiplicity
  _atom_site_fract_x
  _atom_site_fract_y
  _atom_site_fract_z
  _atom_site_occupancy
  Re  Re1       1.0  0.13500  0.13500  0.13500  1.0000
  Re  Re2       1.0  0.86500  0.63500  0.36500  1.0000
  Re  Re3       1.0  0.36500  0.86500  0.63500  1.0000
  Re  Re4       1.0  0.63500  0.36500  0.86500  1.0000
  Si  Si1       1.0  0.34500  0.65500  0.15500  1.0000
  Si  Si2       1.0  0.65500  0.15500  0.34500  1.0000
  Si  Si3       1.0  0.15500  0.34500  0.65500  1.0000
  Si  Si4       1.0  0.84500  0.84500  0.84500  1.0000
