data_image0
_chemical_formula_structural       Be2N2O2Pr2
_chemical_formula_sum              "Be2 N2 O2 Pr2"
_cell_length_a       3.58519
_cell_length_b       3.58519
_cell_length_c       7.6425
_cell_angle_alpha    90
_cell_angle_beta     90
_cell_angle_gamma    90

_space_group_name_H-M_alt    "P 1"
_space_group_IT_number       1

loop_
  _space_group_symop_operation_xyz
  'x, y, z'

loop_
  _atom_site_type_symbol
  _atom_site_label
  _atom_site_symmetry_multiplicity
  _atom_site_fract_x
  _atom_site_fract_y
  _atom_site_fract_z
  _atom_site_occupancy
  Be  Be1       1.0  0.75000  0.25000  0.50000  1.0000
  Be  Be2       1.0  0.25000  0.75000  0.50000  1.0000
  N   N1        1.0  0.75000  0.75000  0.41600  1.0000
  N   N2        1.0  0.25000  0.25000  0.58400  1.0000
  O   O1        1.0  0.75000  0.25000  0.00000  1.0000
  O   O2        1.0  0.25000  0.75000  0.00000  1.0000
  Pr  Pr1       1.0  0.25000  0.25000  0.18100  1.0000
  Pr  Pr2       1.0  0.75000  0.75000  0.81900  1.0000
