data_image0
_chemical_formula_structural       C12H20K4N8O20
_chemical_formula_sum              "C12 H20 K4 N8 O20"
_cell_length_a       7.60976
_cell_length_b       12.6162
_cell_length_c       6.45786
_cell_angle_alpha    90
_cell_angle_beta     90
_cell_angle_gamma    90

_space_group_name_H-M_alt    "P 1"
_space_group_IT_number       1

loop_
  _space_group_symop_operation_xyz
  'x, y, z'

loop_
  _atom_site_type_symbol
  _atom_site_label
  _atom_site_symmetry_multiplicity
  _atom_site_fract_x
  _atom_site_fract_y
  _atom_site_fract_z
  _atom_site_occupancy
  C   C1        1.0  0.63100  0.25000  0.00000  1.0000
  C   C2        1.0  0.83400  0.25100  0.00000  1.0000
  C   C3        1.0  0.36400  0.36000  0.00000  1.0000
  C   C4        1.0  0.63600  0.64000  0.00000  1.0000
  C   C5        1.0  0.16600  0.74900  0.00000  1.0000
  C   C6        1.0  0.36900  0.75000  0.00000  1.0000
  C   C7        1.0  0.86400  0.14000  0.50000  1.0000
  C   C8        1.0  0.33400  0.24900  0.50000  1.0000
  C   C9        1.0  0.13100  0.25000  0.50000  1.0000
  C   C10       1.0  0.86900  0.75000  0.50000  1.0000
  C   C11       1.0  0.66600  0.75100  0.50000  1.0000
  C   C12       1.0  0.13600  0.86000  0.50000  1.0000
  H   H1        1.0  0.82100  0.03650  0.00000  1.0000
  H   H2        1.0  0.10900  0.08170  0.00000  1.0000
  H   H3        1.0  0.31900  0.20100  0.00000  1.0000
  H   H4        1.0  0.12900  0.28700  0.00000  1.0000
  H   H5        1.0  0.62000  0.41500  0.00000  1.0000
  H   H6        1.0  0.38000  0.58500  0.00000  1.0000
  H   H7        1.0  0.87100  0.71300  0.00000  1.0000
  H   H8        1.0  0.68100  0.79900  0.00000  1.0000
  H   H9        1.0  0.89100  0.91800  0.00000  1.0000
  H   H10       1.0  0.17900  0.96300  0.00000  1.0000
  H   H11       1.0  0.12000  0.08460  0.50000  1.0000
  H   H12       1.0  0.62900  0.21300  0.50000  1.0000
  H   H13       1.0  0.81900  0.29900  0.50000  1.0000
  H   H14       1.0  0.60900  0.41800  0.50000  1.0000
  H   H15       1.0  0.32100  0.46300  0.50000  1.0000
  H   H16       1.0  0.67900  0.53700  0.50000  1.0000
  H   H17       1.0  0.39100  0.58200  0.50000  1.0000
  H   H18       1.0  0.18100  0.70100  0.50000  1.0000
  H   H19       1.0  0.37100  0.78700  0.50000  1.0000
  H   H20       1.0  0.88000  0.91500  0.50000  1.0000
  K   K1        1.0  0.00000  0.50000  0.24500  1.0000
  K   K2        1.0  0.50000  0.00000  0.25500  1.0000
  K   K3        1.0  0.50000  0.00000  0.74500  1.0000
  K   K4        1.0  0.00000  0.50000  0.75500  1.0000
  N   N1        1.0  0.26300  0.27500  0.00000  1.0000
  N   N2        1.0  0.54800  0.34500  0.00000  1.0000
  N   N3        1.0  0.45200  0.65500  0.00000  1.0000
  N   N4        1.0  0.73700  0.72500  0.00000  1.0000
  N   N5        1.0  0.04790  0.15500  0.50000  1.0000
  N   N6        1.0  0.76300  0.22500  0.50000  1.0000
  N   N7        1.0  0.23700  0.77500  0.50000  1.0000
  N   N8        1.0  0.95200  0.84500  0.50000  1.0000
  O   O1        1.0  0.21700  0.03900  0.00000  1.0000
  O   O2        1.0  0.90700  0.16200  0.00000  1.0000
  O   O3        1.0  0.55400  0.16300  0.00000  1.0000
  O   O4        1.0  0.90900  0.34000  0.00000  1.0000
  O   O5        1.0  0.30300  0.45300  0.00000  1.0000
  O   O6        1.0  0.69700  0.54700  0.00000  1.0000
  O   O7        1.0  0.09150  0.66000  0.00000  1.0000
  O   O8        1.0  0.44600  0.83700  0.00000  1.0000
  O   O9        1.0  0.09280  0.83800  0.00000  1.0000
  O   O10       1.0  0.78300  0.96100  0.00000  1.0000
  O   O11       1.0  0.80300  0.04730  0.50000  1.0000
  O   O12       1.0  0.40900  0.16000  0.50000  1.0000
  O   O13       1.0  0.05390  0.33700  0.50000  1.0000
  O   O14       1.0  0.40700  0.33800  0.50000  1.0000
  O   O15       1.0  0.71700  0.46100  0.50000  1.0000
  O   O16       1.0  0.28300  0.53900  0.50000  1.0000
  O   O17       1.0  0.59300  0.66200  0.50000  1.0000
  O   O18       1.0  0.94600  0.66300  0.50000  1.0000
  O   O19       1.0  0.59100  0.84000  0.50000  1.0000
  O   O20       1.0  0.19700  0.95300  0.50000  1.0000
