data_image0
_chemical_formula_structural       O2S2Tl2Y2
_chemical_formula_sum              "O2 S2 Tl2 Y2"
_cell_length_a       4.36728
_cell_length_b       8.03774
_cell_length_c       6.472
_cell_angle_alpha    90
_cell_angle_beta     90
_cell_angle_gamma    90

_space_group_name_H-M_alt    "P 1"
_space_group_IT_number       1

loop_
  _space_group_symop_operation_xyz
  'x, y, z'

loop_
  _atom_site_type_symbol
  _atom_site_label
  _atom_site_symmetry_multiplicity
  _atom_site_fract_x
  _atom_site_fract_y
  _atom_site_fract_z
  _atom_site_occupancy
  O   O1        1.0  0.50000  0.08740  0.21900  1.0000
  O   O2        1.0  0.50000  0.91300  0.71900  1.0000
  S   S1        1.0  0.00000  0.69600  0.12300  1.0000
  S   S2        1.0  0.00000  0.30400  0.62300  1.0000
  Tl  Tl1       1.0  0.00000  0.30600  0.10900  1.0000
  Tl  Tl2       1.0  0.00000  0.69400  0.60900  1.0000
  Y   Y1        1.0  0.50000  0.86800  0.04000  1.0000
  Y   Y2        1.0  0.50000  0.13200  0.54000  1.0000
