data_image0
_chemical_formula_structural       CuRb2Se2
_chemical_formula_sum              "Cu1 Rb2 Se2"
_cell_length_a       3.75279
_cell_length_b       6.41818
_cell_length_c       6.92068
_cell_angle_alpha    77.351
_cell_angle_beta     89.9716
_cell_angle_gamma    107.004

_space_group_name_H-M_alt    "P 1"
_space_group_IT_number       1

loop_
  _space_group_symop_operation_xyz
  'x, y, z'

loop_
  _atom_site_type_symbol
  _atom_site_label
  _atom_site_symmetry_multiplicity
  _atom_site_fract_x
  _atom_site_fract_y
  _atom_site_fract_z
  _atom_site_occupancy
  Cu  Cu1       1.0  0.50000  0.00000  0.00000  1.0000
  Rb  Rb1       1.0  0.15800  0.31700  0.28800  1.0000
  Rb  Rb2       1.0  0.84200  0.68300  0.71200  1.0000
  Se  Se1       1.0  0.89600  0.79300  0.19600  1.0000
  Se  Se2       1.0  0.10400  0.20700  0.80400  1.0000
