data_image0
_chemical_formula_structural       La2Ru2Si4
_chemical_formula_sum              "La2 Ru2 Si4"
_cell_length_a       4.55155
_cell_length_b       4.11888
_cell_length_c       8.403
_cell_angle_alpha    90
_cell_angle_beta     102.452
_cell_angle_gamma    90

_space_group_name_H-M_alt    "P 1"
_space_group_IT_number       1

loop_
  _space_group_symop_operation_xyz
  'x, y, z'

loop_
  _atom_site_type_symbol
  _atom_site_label
  _atom_site_symmetry_multiplicity
  _atom_site_fract_x
  _atom_site_fract_y
  _atom_site_fract_z
  _atom_site_occupancy
  La  La1       1.0  0.08980  0.25000  0.20100  1.0000
  La  La2       1.0  0.91000  0.75000  0.79900  1.0000
  Ru  Ru1       1.0  0.62000  0.75000  0.38800  1.0000
  Ru  Ru2       1.0  0.38000  0.25000  0.61200  1.0000
  Si  Si1       1.0  0.53800  0.75000  0.09100  1.0000
  Si  Si2       1.0  0.16900  0.75000  0.49200  1.0000
  Si  Si3       1.0  0.83100  0.25000  0.50800  1.0000
  Si  Si4       1.0  0.46200  0.25000  0.90900  1.0000
