data_image0
_chemical_formula_structural       In2O2P2W2
_chemical_formula_sum              "In2 O2 P2 W2"
_cell_length_a       3.96635
_cell_length_b       3.96635
_cell_length_c       8.84807
_cell_angle_alpha    90
_cell_angle_beta     90
_cell_angle_gamma    90

_space_group_name_H-M_alt    "P 1"
_space_group_IT_number       1

loop_
  _space_group_symop_operation_xyz
  'x, y, z'

loop_
  _atom_site_type_symbol
  _atom_site_label
  _atom_site_symmetry_multiplicity
  _atom_site_fract_x
  _atom_site_fract_y
  _atom_site_fract_z
  _atom_site_occupancy
  In  In1       1.0  0.50000  0.00000  0.50000  1.0000
  In  In2       1.0  0.00000  0.50000  0.50000  1.0000
  O   O1        1.0  0.50000  0.00000  0.00000  1.0000
  O   O2        1.0  0.00000  0.50000  0.00000  1.0000
  P   P1        1.0  0.50000  0.50000  0.21900  1.0000
  P   P2        1.0  0.00000  0.00000  0.78100  1.0000
  W   W1        1.0  0.00000  0.00000  0.09650  1.0000
  W   W2        1.0  0.50000  0.50000  0.90400  1.0000
