data_image0
_chemical_formula_structural       Mn2Mo2O2P2
_chemical_formula_sum              "Mn2 Mo2 O2 P2"
_cell_length_a       3.49209
_cell_length_b       3.49209
_cell_length_c       8.05148
_cell_angle_alpha    90
_cell_angle_beta     90
_cell_angle_gamma    90

_space_group_name_H-M_alt    "P 1"
_space_group_IT_number       1

loop_
  _space_group_symop_operation_xyz
  'x, y, z'

loop_
  _atom_site_type_symbol
  _atom_site_label
  _atom_site_symmetry_multiplicity
  _atom_site_fract_x
  _atom_site_fract_y
  _atom_site_fract_z
  _atom_site_occupancy
  Mn  Mn1       1.0  0.50000  0.00000  0.50000  1.0000
  Mn  Mn2       1.0  0.00000  0.50000  0.50000  1.0000
  Mo  Mo1       1.0  0.00000  0.00000  0.16400  1.0000
  Mo  Mo2       1.0  0.50000  0.50000  0.83600  1.0000
  O   O1        1.0  0.50000  0.00000  0.00000  1.0000
  O   O2        1.0  0.00000  0.50000  0.00000  1.0000
  P   P1        1.0  0.50000  0.50000  0.28800  1.0000
  P   P2        1.0  0.00000  0.00000  0.71200  1.0000
