data_image0
_chemical_formula_structural       Mo2Nd2O2P2
_chemical_formula_sum              "Mo2 Nd2 O2 P2"
_cell_length_a       3.92145
_cell_length_b       3.92145
_cell_length_c       9.03055
_cell_angle_alpha    90
_cell_angle_beta     90
_cell_angle_gamma    90

_space_group_name_H-M_alt    "P 1"
_space_group_IT_number       1

loop_
  _space_group_symop_operation_xyz
  'x, y, z'

loop_
  _atom_site_type_symbol
  _atom_site_label
  _atom_site_symmetry_multiplicity
  _atom_site_fract_x
  _atom_site_fract_y
  _atom_site_fract_z
  _atom_site_occupancy
  Mo  Mo1       1.0  0.75000  0.25000  0.50000  1.0000
  Mo  Mo2       1.0  0.25000  0.75000  0.50000  1.0000
  Nd  Nd1       1.0  0.25000  0.25000  0.13700  1.0000
  Nd  Nd2       1.0  0.75000  0.75000  0.86300  1.0000
  O   O1        1.0  0.75000  0.25000  0.00000  1.0000
  O   O2        1.0  0.25000  0.75000  0.00000  1.0000
  P   P1        1.0  0.75000  0.75000  0.32700  1.0000
  P   P2        1.0  0.25000  0.25000  0.67300  1.0000
