data_image0
_chemical_formula_structural       Na2O2P2Zn2
_chemical_formula_sum              "Na2 O2 P2 Zn2"
_cell_length_a       3.93244
_cell_length_b       3.93244
_cell_length_c       9.33575
_cell_angle_alpha    90
_cell_angle_beta     90
_cell_angle_gamma    90

_space_group_name_H-M_alt    "P 1"
_space_group_IT_number       1

loop_
  _space_group_symop_operation_xyz
  'x, y, z'

loop_
  _atom_site_type_symbol
  _atom_site_label
  _atom_site_symmetry_multiplicity
  _atom_site_fract_x
  _atom_site_fract_y
  _atom_site_fract_z
  _atom_site_occupancy
  Na  Na1       1.0  0.50000  0.00000  0.50000  1.0000
  Na  Na2       1.0  0.00000  0.50000  0.50000  1.0000
  O   O1        1.0  0.50000  0.00000  0.00000  1.0000
  O   O2        1.0  0.00000  0.50000  0.00000  1.0000
  P   P1        1.0  0.50000  0.50000  0.27800  1.0000
  P   P2        1.0  0.00000  0.00000  0.72200  1.0000
  Zn  Zn1       1.0  0.00000  0.00000  0.05010  1.0000
  Zn  Zn2       1.0  0.50000  0.50000  0.95000  1.0000
