data_image0
_chemical_formula_structural       O2Os2P2Rb2
_chemical_formula_sum              "O2 Os2 P2 Rb2"
_cell_length_a       3.95208
_cell_length_b       3.95208
_cell_length_c       11.353
_cell_angle_alpha    90
_cell_angle_beta     90
_cell_angle_gamma    90

_space_group_name_H-M_alt    "P 1"
_space_group_IT_number       1

loop_
  _space_group_symop_operation_xyz
  'x, y, z'

loop_
  _atom_site_type_symbol
  _atom_site_label
  _atom_site_symmetry_multiplicity
  _atom_site_fract_x
  _atom_site_fract_y
  _atom_site_fract_z
  _atom_site_occupancy
  O   O1        1.0  0.50000  0.00000  0.00000  1.0000
  O   O2        1.0  0.00000  0.50000  0.00000  1.0000
  Os  Os1       1.0  0.50000  0.00000  0.50000  1.0000
  Os  Os2       1.0  0.00000  0.50000  0.50000  1.0000
  P   P1        1.0  0.50000  0.50000  0.39100  1.0000
  P   P2        1.0  0.00000  0.00000  0.60900  1.0000
  Rb  Rb1       1.0  0.00000  0.00000  0.16400  1.0000
  Rb  Rb2       1.0  0.50000  0.50000  0.83600  1.0000
