data_image0
_chemical_formula_structural       Ag2O2P2Pu2
_chemical_formula_sum              "Ag2 O2 P2 Pu2"
_cell_length_a       4.00285
_cell_length_b       4.00285
_cell_length_c       8.52812
_cell_angle_alpha    90
_cell_angle_beta     90
_cell_angle_gamma    90

_space_group_name_H-M_alt    "P 1"
_space_group_IT_number       1

loop_
  _space_group_symop_operation_xyz
  'x, y, z'

loop_
  _atom_site_type_symbol
  _atom_site_label
  _atom_site_symmetry_multiplicity
  _atom_site_fract_x
  _atom_site_fract_y
  _atom_site_fract_z
  _atom_site_occupancy
  Ag  Ag1       1.0  0.75000  0.25000  0.50000  1.0000
  Ag  Ag2       1.0  0.25000  0.75000  0.50000  1.0000
  O   O1        1.0  0.75000  0.25000  0.00000  1.0000
  O   O2        1.0  0.25000  0.75000  0.00000  1.0000
  P   P1        1.0  0.75000  0.75000  0.31600  1.0000
  P   P2        1.0  0.25000  0.25000  0.68400  1.0000
  Pu  Pu1       1.0  0.25000  0.25000  0.13800  1.0000
  Pu  Pu2       1.0  0.75000  0.75000  0.86200  1.0000
