data_image0
_chemical_formula_structural       Ca4OSb2
_chemical_formula_sum              "Ca4 O1 Sb2"
_cell_length_a       4.68767
_cell_length_b       4.68767
_cell_length_c       8.80164
_cell_angle_alpha    105.444
_cell_angle_beta     105.444
_cell_angle_gamma    90

_space_group_name_H-M_alt    "P 1"
_space_group_IT_number       1

loop_
  _space_group_symop_operation_xyz
  'x, y, z'

loop_
  _atom_site_type_symbol
  _atom_site_label
  _atom_site_symmetry_multiplicity
  _atom_site_fract_x
  _atom_site_fract_y
  _atom_site_fract_z
  _atom_site_occupancy
  Ca  Ca1       1.0  0.50000  0.00000  0.00000  1.0000
  Ca  Ca2       1.0  0.00000  0.50000  0.00000  1.0000
  Ca  Ca3       1.0  0.66600  0.66600  0.33100  1.0000
  Ca  Ca4       1.0  0.33400  0.33400  0.66900  1.0000
  O   O1        1.0  0.50000  0.50000  0.00000  1.0000
  Sb  Sb1       1.0  0.14000  0.14000  0.27900  1.0000
  Sb  Sb2       1.0  0.86000  0.86000  0.72100  1.0000
