data_image0
_chemical_formula_structural       Ba2N2O2V2
_chemical_formula_sum              "Ba2 N2 O2 V2"
_cell_length_a       3.80197
_cell_length_b       5.88876
_cell_length_c       6.1193
_cell_angle_alpha    90
_cell_angle_beta     90
_cell_angle_gamma    90

_space_group_name_H-M_alt    "P 1"
_space_group_IT_number       1

loop_
  _space_group_symop_operation_xyz
  'x, y, z'

loop_
  _atom_site_type_symbol
  _atom_site_label
  _atom_site_symmetry_multiplicity
  _atom_site_fract_x
  _atom_site_fract_y
  _atom_site_fract_z
  _atom_site_occupancy
  Ba  Ba1       1.0  0.50000  0.00274  0.24100  1.0000
  Ba  Ba2       1.0  0.50000  0.50300  0.75900  1.0000
  N   N1        1.0  0.00000  0.75100  0.49700  1.0000
  N   N2        1.0  0.00000  0.25100  0.50300  1.0000
  O   O1        1.0  0.50000  0.49600  0.19000  1.0000
  O   O2        1.0  0.50000  0.99600  0.81000  1.0000
  V   V1        1.0  0.00000  0.50400  0.30800  1.0000
  V   V2        1.0  0.00000  0.00412  0.69200  1.0000
