data_image0
_chemical_formula_structural       Ho2Mn4
_chemical_formula_sum              "Ho2 Mn4"
_cell_length_a       5.0673
_cell_length_b       5.06752
_cell_length_c       5.06729
_cell_angle_alpha    119.999
_cell_angle_beta     90.0004
_cell_angle_gamma    120

_space_group_name_H-M_alt    "P 1"
_space_group_IT_number       1

loop_
  _space_group_symop_operation_xyz
  'x, y, z'

loop_
  _atom_site_type_symbol
  _atom_site_label
  _atom_site_symmetry_multiplicity
  _atom_site_fract_x
  _atom_site_fract_y
  _atom_site_fract_z
  _atom_site_occupancy
  Ho  Ho1       1.0  0.00001  0.00000  0.00000  1.0000
  Ho  Ho2       1.0  0.75000  0.50000  0.25000  1.0000
  Mn  Mn1       1.0  0.37500  0.75000  0.12500  1.0000
  Mn  Mn2       1.0  0.87500  0.25000  0.62500  1.0000
  Mn  Mn3       1.0  0.37500  0.25000  0.62500  1.0000
  Mn  Mn4       1.0  0.37500  0.75000  0.62500  1.0000
