data_image0
_chemical_formula_structural       Bi4Fe2Hf4Ni2
_chemical_formula_sum              "Bi4 Fe2 Hf4 Ni2"
_cell_length_a       6.21467
_cell_length_b       6.21467
_cell_length_c       7.59345
_cell_angle_alpha    65.8446
_cell_angle_beta     65.8446
_cell_angle_gamma    90

_space_group_name_H-M_alt    "P 1"
_space_group_IT_number       1

loop_
  _space_group_symop_operation_xyz
  'x, y, z'

loop_
  _atom_site_type_symbol
  _atom_site_label
  _atom_site_symmetry_multiplicity
  _atom_site_fract_x
  _atom_site_fract_y
  _atom_site_fract_z
  _atom_site_occupancy
  Bi  Bi1       1.0  0.12500  0.62600  0.25000  1.0000
  Bi  Bi2       1.0  0.62500  0.12400  0.25000  1.0000
  Bi  Bi3       1.0  0.37400  0.37500  0.75000  1.0000
  Bi  Bi4       1.0  0.87600  0.87500  0.75000  1.0000
  Fe  Fe1       1.0  0.00000  0.00000  0.00000  1.0000
  Fe  Fe2       1.0  0.25000  0.75000  0.50000  1.0000
  Hf  Hf1       1.0  0.62500  0.63300  0.25000  1.0000
  Hf  Hf2       1.0  0.12500  0.11700  0.25000  1.0000
  Hf  Hf3       1.0  0.88300  0.37500  0.75000  1.0000
  Hf  Hf4       1.0  0.36700  0.87500  0.75000  1.0000
  Ni  Ni1       1.0  0.50000  0.50000  0.00000  1.0000
  Ni  Ni2       1.0  0.75000  0.25000  0.50000  1.0000
