data_image0
_chemical_formula_structural       Bi4Fe2Pd2Ti4
_chemical_formula_sum              "Bi4 Fe2 Pd2 Ti4"
_cell_length_a       6.21492
_cell_length_b       6.21492
_cell_length_c       7.53564
_cell_angle_alpha    65.6463
_cell_angle_beta     65.6463
_cell_angle_gamma    90

_space_group_name_H-M_alt    "P 1"
_space_group_IT_number       1

loop_
  _space_group_symop_operation_xyz
  'x, y, z'

loop_
  _atom_site_type_symbol
  _atom_site_label
  _atom_site_symmetry_multiplicity
  _atom_site_fract_x
  _atom_site_fract_y
  _atom_site_fract_z
  _atom_site_occupancy
  Bi  Bi1       1.0  0.62500  0.11200  0.25000  1.0000
  Bi  Bi2       1.0  0.12500  0.63800  0.25000  1.0000
  Bi  Bi3       1.0  0.36200  0.37500  0.75000  1.0000
  Bi  Bi4       1.0  0.88800  0.87500  0.75000  1.0000
  Fe  Fe1       1.0  0.00000  0.00000  0.00000  1.0000
  Fe  Fe2       1.0  0.25000  0.75000  0.50000  1.0000
  Pd  Pd1       1.0  0.50000  0.50000  0.00000  1.0000
  Pd  Pd2       1.0  0.75000  0.25000  0.50000  1.0000
  Ti  Ti1       1.0  0.12500  0.10800  0.25000  1.0000
  Ti  Ti2       1.0  0.62500  0.64200  0.25000  1.0000
  Ti  Ti3       1.0  0.35800  0.87500  0.75000  1.0000
  Ti  Ti4       1.0  0.89200  0.37500  0.75000  1.0000
