data_image0
_chemical_formula_structural       Bi2In2Rh4Ta4
_chemical_formula_sum              "Bi2 In2 Rh4 Ta4"
_cell_length_a       7.65646
_cell_length_b       7.65646
_cell_length_c       6.2447
_cell_angle_alpha    114.067
_cell_angle_beta     114.067
_cell_angle_gamma    109.559

_space_group_name_H-M_alt    "P 1"
_space_group_IT_number       1

loop_
  _space_group_symop_operation_xyz
  'x, y, z'

loop_
  _atom_site_type_symbol
  _atom_site_label
  _atom_site_symmetry_multiplicity
  _atom_site_fract_x
  _atom_site_fract_y
  _atom_site_fract_z
  _atom_site_occupancy
  Bi  Bi1       1.0  0.50000  0.50000  0.00000  1.0000
  Bi  Bi2       1.0  0.75000  0.25000  0.50000  1.0000
  In  In1       1.0  0.00000  0.00000  0.00000  1.0000
  In  In2       1.0  0.25000  0.75000  0.50000  1.0000
  Rh  Rh1       1.0  0.37500  0.12500  0.00011  1.0000
  Rh  Rh2       1.0  0.62500  0.87500  0.50000  1.0000
  Rh  Rh3       1.0  0.12500  0.37500  0.50000  1.0000
  Rh  Rh4       1.0  0.87500  0.62500  0.00000  1.0000
  Ta  Ta1       1.0  0.75500  0.24500  0.00000  1.0000
  Ta  Ta2       1.0  0.24500  0.75500  0.00000  1.0000
  Ta  Ta3       1.0  0.49500  0.50500  0.50000  1.0000
  Ta  Ta4       1.0  0.00491  0.99500  0.50000  1.0000
