data_image0
_chemical_formula_structural       O8Pu2Tm4
_chemical_formula_sum              "O8 Pu2 Tm4"
_cell_length_a       6.78303
_cell_length_b       6.78303
_cell_length_c       6.79075
_cell_angle_alpha    119.962
_cell_angle_beta     119.962
_cell_angle_gamma    90

_space_group_name_H-M_alt    "P 1"
_space_group_IT_number       1

loop_
  _space_group_symop_operation_xyz
  'x, y, z'

loop_
  _atom_site_type_symbol
  _atom_site_label
  _atom_site_symmetry_multiplicity
  _atom_site_fract_x
  _atom_site_fract_y
  _atom_site_fract_z
  _atom_site_occupancy
  O   O1        1.0  0.60800  0.82400  0.21500  1.0000
  O   O2        1.0  0.60800  0.39100  0.21500  1.0000
  O   O3        1.0  0.14200  0.85900  0.28500  1.0000
  O   O4        1.0  0.14200  0.42600  0.28500  1.0000
  O   O5        1.0  0.57400  0.85800  0.71500  1.0000
  O   O6        1.0  0.14100  0.85800  0.71500  1.0000
  O   O7        1.0  0.60900  0.39200  0.78500  1.0000
  O   O8        1.0  0.17600  0.39200  0.78500  1.0000
  Pu  Pu1       1.0  0.00000  0.00000  0.00000  1.0000
  Pu  Pu2       1.0  0.75000  0.25000  0.50000  1.0000
  Tm  Tm1       1.0  0.37500  0.62500  0.25000  1.0000
  Tm  Tm2       1.0  0.87500  0.62500  0.25000  1.0000
  Tm  Tm3       1.0  0.37500  0.12500  0.75000  1.0000
  Tm  Tm4       1.0  0.37500  0.62500  0.75000  1.0000
