data_image0
_chemical_formula_structural       B2Ho2N2O2
_chemical_formula_sum              "B2 Ho2 N2 O2"
_cell_length_a       2.79453
_cell_length_b       5.85013
_cell_length_c       5.05054
_cell_angle_alpha    90
_cell_angle_beta     90
_cell_angle_gamma    90

_space_group_name_H-M_alt    "P 1"
_space_group_IT_number       1

loop_
  _space_group_symop_operation_xyz
  'x, y, z'

loop_
  _atom_site_type_symbol
  _atom_site_label
  _atom_site_symmetry_multiplicity
  _atom_site_fract_x
  _atom_site_fract_y
  _atom_site_fract_z
  _atom_site_occupancy
  B   B1        1.0  0.50000  0.96400  0.30700  1.0000
  B   B2        1.0  0.50000  0.46400  0.69300  1.0000
  Ho  Ho1       1.0  0.00000  0.45300  0.20000  1.0000
  Ho  Ho2       1.0  0.00000  0.95300  0.80000  1.0000
  N   N1        1.0  0.00000  0.06750  0.34900  1.0000
  N   N2        1.0  0.00000  0.56700  0.65100  1.0000
  O   O1        1.0  0.50000  0.76900  0.12900  1.0000
  O   O2        1.0  0.50000  0.26900  0.87100  1.0000
