data_image0
_chemical_formula_structural       As3Cr3Pd3
_chemical_formula_sum              "As3 Cr3 Pd3"
_cell_length_a       6.66541
_cell_length_b       6.66541
_cell_length_c       3.64486
_cell_angle_alpha    90
_cell_angle_beta     90
_cell_angle_gamma    120.033

_space_group_name_H-M_alt    "P 1"
_space_group_IT_number       1

loop_
  _space_group_symop_operation_xyz
  'x, y, z'

loop_
  _atom_site_type_symbol
  _atom_site_label
  _atom_site_symmetry_multiplicity
  _atom_site_fract_x
  _atom_site_fract_y
  _atom_site_fract_z
  _atom_site_occupancy
  As  As1       1.0  0.66700  0.33300  0.00000  1.0000
  As  As2       1.0  0.33300  0.66700  0.00000  1.0000
  As  As3       1.0  0.00000  0.00000  0.50000  1.0000
  Cr  Cr1       1.0  0.60500  0.00000  0.50000  1.0000
  Cr  Cr2       1.0  0.39500  0.39500  0.50000  1.0000
  Cr  Cr3       1.0  0.00000  0.60500  0.50000  1.0000
  Pd  Pd1       1.0  0.26800  0.00000  0.00000  1.0000
  Pd  Pd2       1.0  0.00000  0.26800  0.00000  1.0000
  Pd  Pd3       1.0  0.73200  0.73200  0.00000  1.0000
