data_image0
_chemical_formula_structural       Mg3Pt3Sm3
_chemical_formula_sum              "Mg3 Pt3 Sm3"
_cell_length_a       7.471
_cell_length_b       7.471
_cell_length_c       4.11456
_cell_angle_alpha    90
_cell_angle_beta     90
_cell_angle_gamma    120

_space_group_name_H-M_alt    "P 1"
_space_group_IT_number       1

loop_
  _space_group_symop_operation_xyz
  'x, y, z'

loop_
  _atom_site_type_symbol
  _atom_site_label
  _atom_site_symmetry_multiplicity
  _atom_site_fract_x
  _atom_site_fract_y
  _atom_site_fract_z
  _atom_site_occupancy
  Mg  Mg1       1.0  0.75700  0.00000  0.50000  1.0000
  Mg  Mg2       1.0  0.24300  0.24300  0.50000  1.0000
  Mg  Mg3       1.0  0.00000  0.75700  0.50000  1.0000
  Pt  Pt1       1.0  0.00000  0.00000  0.00000  1.0000
  Pt  Pt2       1.0  0.66700  0.33300  0.50000  1.0000
  Pt  Pt3       1.0  0.33300  0.66700  0.50000  1.0000
  Sm  Sm1       1.0  0.41200  0.00000  0.00000  1.0000
  Sm  Sm2       1.0  0.00000  0.41200  0.00000  1.0000
  Sm  Sm3       1.0  0.58800  0.58800  0.00000  1.0000
