data_image0
_chemical_formula_structural       As3Hf3Ru3
_chemical_formula_sum              "As3 Hf3 Ru3"
_cell_length_a       6.5875
_cell_length_b       6.5875
_cell_length_c       3.9063
_cell_angle_alpha    90
_cell_angle_beta     90
_cell_angle_gamma    119.993

_space_group_name_H-M_alt    "P 1"
_space_group_IT_number       1

loop_
  _space_group_symop_operation_xyz
  'x, y, z'

loop_
  _atom_site_type_symbol
  _atom_site_label
  _atom_site_symmetry_multiplicity
  _atom_site_fract_x
  _atom_site_fract_y
  _atom_site_fract_z
  _atom_site_occupancy
  As  As1       1.0  0.66700  0.33300  0.00000  1.0000
  As  As2       1.0  0.33300  0.66700  0.00000  1.0000
  As  As3       1.0  0.00001  0.00001  0.50000  1.0000
  Hf  Hf1       1.0  0.58200  0.00002  0.50000  1.0000
  Hf  Hf2       1.0  0.41800  0.41800  0.50000  1.0000
  Hf  Hf3       1.0  0.00002  0.58200  0.50000  1.0000
  Ru  Ru1       1.0  0.24500  0.00001  0.00000  1.0000
  Ru  Ru2       1.0  0.00001  0.24500  0.00000  1.0000
  Ru  Ru3       1.0  0.75500  0.75500  0.00000  1.0000
