data_image0
_chemical_formula_structural       Pb3Pd3Y3
_chemical_formula_sum              "Pb3 Pd3 Y3"
_cell_length_a       7.86778
_cell_length_b       7.86579
_cell_length_c       3.81661
_cell_angle_alpha    90
_cell_angle_beta     90
_cell_angle_gamma    120.008

_space_group_name_H-M_alt    "P 1"
_space_group_IT_number       1

loop_
  _space_group_symop_operation_xyz
  'x, y, z'

loop_
  _atom_site_type_symbol
  _atom_site_label
  _atom_site_symmetry_multiplicity
  _atom_site_fract_x
  _atom_site_fract_y
  _atom_site_fract_z
  _atom_site_occupancy
  Pb  Pb1       1.0  0.39700  0.00000  0.50000  1.0000
  Pb  Pb2       1.0  0.00000  0.39700  0.50000  1.0000
  Pb  Pb3       1.0  0.60300  0.60300  0.50000  1.0000
  Pd  Pd1       1.0  0.33300  0.66700  0.00000  1.0000
  Pd  Pd2       1.0  0.66700  0.33300  0.00000  1.0000
  Pd  Pd3       1.0  0.00000  0.00000  0.50000  1.0000
  Y   Y1        1.0  0.72400  0.00000  0.00000  1.0000
  Y   Y2        1.0  0.00000  0.72400  0.00000  1.0000
  Y   Y3        1.0  0.27600  0.27600  0.00000  1.0000
