data_image0
_chemical_formula_structural       Au2Ga2Hf2
_chemical_formula_sum              "Au2 Ga2 Hf2"
_cell_length_a       4.36864
_cell_length_b       4.36834
_cell_length_c       6.68528
_cell_angle_alpha    90
_cell_angle_beta     90
_cell_angle_gamma    120.002

_space_group_name_H-M_alt    "P 1"
_space_group_IT_number       1

loop_
  _space_group_symop_operation_xyz
  'x, y, z'

loop_
  _atom_site_type_symbol
  _atom_site_label
  _atom_site_symmetry_multiplicity
  _atom_site_fract_x
  _atom_site_fract_y
  _atom_site_fract_z
  _atom_site_occupancy
  Au  Au1       1.0  0.33300  0.66700  0.28500  1.0000
  Au  Au2       1.0  0.33300  0.66700  0.71500  1.0000
  Ga  Ga1       1.0  0.66700  0.33300  0.21200  1.0000
  Ga  Ga2       1.0  0.66700  0.33300  0.78800  1.0000
  Hf  Hf1       1.0  0.00001  0.00003  0.00000  1.0000
  Hf  Hf2       1.0  0.00000  0.00000  0.50000  1.0000
