data_image0
_chemical_formula_structural       Ba2CuO6Re
_chemical_formula_sum              "Ba2 Cu1 O6 Re1"
_cell_length_a       5.79744
_cell_length_b       5.79744
_cell_length_c       5.69401
_cell_angle_alpha    119.412
_cell_angle_beta     119.412
_cell_angle_gamma    92.0266

_space_group_name_H-M_alt    "P 1"
_space_group_IT_number       1

loop_
  _space_group_symop_operation_xyz
  'x, y, z'

loop_
  _atom_site_type_symbol
  _atom_site_label
  _atom_site_symmetry_multiplicity
  _atom_site_fract_x
  _atom_site_fract_y
  _atom_site_fract_z
  _atom_site_occupancy
  Ba  Ba1       1.0  0.75000  0.25000  0.50000  1.0000
  Ba  Ba2       1.0  0.25000  0.75000  0.50000  1.0000
  Cu  Cu1       1.0  0.00000  0.00000  0.00000  1.0000
  O   O1        1.0  0.72900  0.27100  0.00000  1.0000
  O   O2        1.0  0.27100  0.72900  0.00000  1.0000
  O   O3        1.0  0.74700  0.74700  0.02250  1.0000
  O   O4        1.0  0.72500  0.72500  0.47200  1.0000
  O   O5        1.0  0.27500  0.27500  0.52800  1.0000
  O   O6        1.0  0.25300  0.25300  0.97800  1.0000
  Re  Re1       1.0  0.50000  0.50000  0.00000  1.0000
