data_image0
_chemical_formula_structural       GdIr2Pb2
_chemical_formula_sum              "Gd1 Ir2 Pb2"
_cell_length_a       6.90179
_cell_length_b       6.90179
_cell_length_c       6.90179
_cell_angle_alpha    143.384
_cell_angle_beta     143.384
_cell_angle_gamma    52.7498

_space_group_name_H-M_alt    "P 1"
_space_group_IT_number       1

loop_
  _space_group_symop_operation_xyz
  'x, y, z'

loop_
  _atom_site_type_symbol
  _atom_site_label
  _atom_site_symmetry_multiplicity
  _atom_site_fract_x
  _atom_site_fract_y
  _atom_site_fract_z
  _atom_site_occupancy
  Gd  Gd1       1.0  0.00000  0.00000  0.00000  1.0000
  Ir  Ir1       1.0  0.40300  0.40300  0.00000  1.0000
  Ir  Ir2       1.0  0.59700  0.59700  0.00000  1.0000
  Pb  Pb1       1.0  0.75000  0.25000  0.50000  1.0000
  Pb  Pb2       1.0  0.25000  0.75000  0.50000  1.0000
