data_image0
_chemical_formula_structural       Pb2Ru2Y
_chemical_formula_sum              "Pb2 Ru2 Y1"
_cell_length_a       6.42786
_cell_length_b       6.42786
_cell_length_c       6.42786
_cell_angle_alpha    138.677
_cell_angle_beta     138.677
_cell_angle_gamma    59.8678

_space_group_name_H-M_alt    "P 1"
_space_group_IT_number       1

loop_
  _space_group_symop_operation_xyz
  'x, y, z'

loop_
  _atom_site_type_symbol
  _atom_site_label
  _atom_site_symmetry_multiplicity
  _atom_site_fract_x
  _atom_site_fract_y
  _atom_site_fract_z
  _atom_site_occupancy
  Pb  Pb1       1.0  0.37100  0.37100  0.00000  1.0000
  Pb  Pb2       1.0  0.62900  0.62900  0.00000  1.0000
  Ru  Ru1       1.0  0.75000  0.25000  0.50000  1.0000
  Ru  Ru2       1.0  0.25000  0.75000  0.50000  1.0000
  Y   Y1        1.0  0.00000  0.00000  0.00000  1.0000
