data_image0
_chemical_formula_structural       Cu2Os2Tb
_chemical_formula_sum              "Cu2 Os2 Tb1"
_cell_length_a       3.72683
_cell_length_b       3.72683
_cell_length_c       6.42664
_cell_angle_alpha    106.855
_cell_angle_beta     106.855
_cell_angle_gamma    90

_space_group_name_H-M_alt    "P 1"
_space_group_IT_number       1

loop_
  _space_group_symop_operation_xyz
  'x, y, z'

loop_
  _atom_site_type_symbol
  _atom_site_label
  _atom_site_symmetry_multiplicity
  _atom_site_fract_x
  _atom_site_fract_y
  _atom_site_fract_z
  _atom_site_occupancy
  Cu  Cu1       1.0  0.60000  0.60000  0.20100  1.0000
  Cu  Cu2       1.0  0.40000  0.40000  0.79900  1.0000
  Os  Os1       1.0  0.75000  0.25000  0.50000  1.0000
  Os  Os2       1.0  0.25000  0.75000  0.50000  1.0000
  Tb  Tb1       1.0  0.00000  0.00000  0.00000  1.0000
