data_image0
_chemical_formula_structural       Ag2PbY2
_chemical_formula_sum              "Ag2 Pb1 Y2"
_cell_length_a       7.88956
_cell_length_b       7.88956
_cell_length_c       7.88956
_cell_angle_alpha    149.339
_cell_angle_beta     149.339
_cell_angle_gamma    43.9127

_space_group_name_H-M_alt    "P 1"
_space_group_IT_number       1

loop_
  _space_group_symop_operation_xyz
  'x, y, z'

loop_
  _atom_site_type_symbol
  _atom_site_label
  _atom_site_symmetry_multiplicity
  _atom_site_fract_x
  _atom_site_fract_y
  _atom_site_fract_z
  _atom_site_occupancy
  Ag  Ag1       1.0  0.75000  0.25000  0.50000  1.0000
  Ag  Ag2       1.0  0.25000  0.75000  0.50000  1.0000
  Pb  Pb1       1.0  0.00000  0.00000  0.00000  1.0000
  Y   Y1        1.0  0.39400  0.39400  0.00000  1.0000
  Y   Y2        1.0  0.60600  0.60600  0.00000  1.0000
