# generated using pymatgen
data_MgSiO3
_symmetry_space_group_name_H-M   'P 1'
_cell_length_a   4.80212762
_cell_length_b   4.80212762
_cell_length_c   6.72953800
_cell_angle_alpha   90.00000000
_cell_angle_beta   90.00000000
_cell_angle_gamma   147.14180645
_symmetry_Int_Tables_number   1
_chemical_formula_structural   MgSiO3
_chemical_formula_sum   'Mg2 Si2 O6'
_cell_volume   84.19799568
_cell_formula_units_Z   2
loop_
 _symmetry_equiv_pos_site_id
 _symmetry_equiv_pos_as_xyz
  1  'x, y, z'
loop_
 _atom_site_type_symbol
 _atom_site_label
 _atom_site_symmetry_multiplicity
 _atom_site_fract_x
 _atom_site_fract_y
 _atom_site_fract_z
 _atom_site_occupancy
  Mg  Mg0  1  0.73933000  0.26067000  0.75000000  1
  Mg  Mg1  1  0.26067000  0.73933000  0.25000000  1
  Si  Si2  1  0.00000000  0.00000000  0.00000000  1
  Si  Si3  1  0.00000000  0.00000000  0.50000000  1
  O  O4  1  0.37390500  0.62609500  0.94470700  1
  O  O5  1  0.62609500  0.37390500  0.05529300  1
  O  O6  1  0.62609500  0.37390500  0.44470700  1
  O  O7  1  0.37390500  0.62609500  0.55529300  1
  O  O8  1  0.07279500  0.92720500  0.75000000  1
  O  O9  1  0.92720500  0.07279500  0.25000000  1
