# generated using pymatgen
data_ZnS
_symmetry_space_group_name_H-M   'P 1'
_cell_length_a   3.85261795
_cell_length_b   3.85261795
_cell_length_c   75.59397400
_cell_angle_alpha   90.00000000
_cell_angle_beta   90.00000000
_cell_angle_gamma   119.99999912
_symmetry_Int_Tables_number   1
_chemical_formula_structural   ZnS
_chemical_formula_sum   'Zn24 S24'
_cell_volume   971.69439976
_cell_formula_units_Z   24
loop_
 _symmetry_equiv_pos_site_id
 _symmetry_equiv_pos_as_xyz
  1  'x, y, z'
loop_
 _atom_site_type_symbol
 _atom_site_label
 _atom_site_symmetry_multiplicity
 _atom_site_fract_x
 _atom_site_fract_y
 _atom_site_fract_z
 _atom_site_occupancy
  Zn  Zn0  1  0.00000000  0.00000000  0.16666800  1
  Zn  Zn1  1  0.33333300  0.66666700  0.79166800  1
  Zn  Zn2  1  0.66666700  0.33333300  0.45833900  1
  Zn  Zn3  1  0.00000000  0.00000000  0.41666900  1
  Zn  Zn4  1  0.66666700  0.33333300  0.08333000  1
  Zn  Zn5  1  0.33333300  0.66666700  0.33333300  1
  Zn  Zn6  1  0.33333300  0.66666700  0.20834300  1
  Zn  Zn7  1  0.00000000  0.00000000  0.58333100  1
  Zn  Zn8  1  0.00000000  0.00000000  0.70833400  1
  Zn  Zn9  1  0.66666700  0.33333300  0.75000200  1
  Zn  Zn10  1  0.66666700  0.33333300  0.91666900  1
  Zn  Zn11  1  0.66666700  0.33333300  0.62501200  1
  Zn  Zn12  1  0.00000000  0.00000000  0.83333100  1
  Zn  Zn13  1  0.33333300  0.66666700  0.66667200  1
  Zn  Zn14  1  0.33333300  0.66666700  0.12500700  1
  Zn  Zn15  1  0.33333300  0.66666700  0.04167700  1
  Zn  Zn16  1  0.00000000  0.00000000  0.99999800  1
  Zn  Zn17  1  0.00000000  0.00000000  0.29167200  1
  Zn  Zn18  1  0.33333300  0.66666700  0.87500700  1
  Zn  Zn19  1  0.33333300  0.66666700  0.95833900  1
  Zn  Zn20  1  0.66666700  0.33333300  0.54167700  1
  Zn  Zn21  1  0.66666700  0.33333300  0.25000100  1
  Zn  Zn22  1  0.66666700  0.33333300  0.37499700  1
  Zn  Zn23  1  0.33333300  0.66666700  0.49999800  1
  S  S24  1  0.00000000  0.00000000  0.19793900  1
  S  S25  1  0.33333300  0.66666700  0.53127200  1
  S  S26  1  0.33333300  0.66666700  0.90622300  1
  S  S27  1  0.66666700  0.33333300  0.94794000  1
  S  S28  1  0.33333300  0.66666700  0.15622200  1
  S  S29  1  0.66666700  0.33333300  0.28124800  1
  S  S30  1  0.66666700  0.33333300  0.11460300  1
  S  S31  1  0.00000000  0.00000000  0.61460400  1
  S  S32  1  0.66666700  0.33333300  0.40622300  1
  S  S33  1  0.00000000  0.00000000  0.73957900  1
  S  S34  1  0.66666700  0.33333300  0.78124800  1
  S  S35  1  0.66666700  0.33333300  0.48955300  1
  S  S36  1  0.33333300  0.66666700  0.82289100  1
  S  S37  1  0.00000000  0.00000000  0.32291500  1
  S  S38  1  0.66666700  0.33333300  0.65624700  1
  S  S39  1  0.00000000  0.00000000  0.86460400  1
  S  S40  1  0.33333300  0.66666700  0.07289000  1
  S  S41  1  0.33333300  0.66666700  0.36457700  1
  S  S42  1  0.33333300  0.66666700  0.69791600  1
  S  S43  1  0.33333300  0.66666700  0.23957600  1
  S  S44  1  0.33333300  0.66666700  0.98955300  1
  S  S45  1  0.00000000  0.00000000  0.44793900  1
  S  S46  1  0.66666700  0.33333300  0.57289000  1
  S  S47  1  0.00000000  0.00000000  0.03127200  1
