data_image0
_chemical_formula_structural       Bi2Na2O4
_chemical_formula_sum              "Bi2 Na2 O4"
_cell_length_a       5.08791
_cell_length_b       5.08791
_cell_length_c       5.90564
_cell_angle_alpha    115.553
_cell_angle_beta     64.447
_cell_angle_gamma    91.3117

_space_group_name_H-M_alt    "P 1"
_space_group_IT_number       1

loop_
  _space_group_symop_operation_xyz
  'x, y, z'

loop_
  _atom_site_type_symbol
  _atom_site_label
  _atom_site_symmetry_multiplicity
  _atom_site_fract_x
  _atom_site_fract_y
  _atom_site_fract_z
  _atom_site_occupancy
  Bi  Bi1       1.0  0.12200  0.12200  0.25000  1.0000
  Bi  Bi2       1.0  0.87800  0.87800  0.75000  1.0000
  Na  Na1       1.0  0.62800  0.62800  0.25000  1.0000
  Na  Na2       1.0  0.37200  0.37200  0.75000  1.0000
  O   O1        1.0  0.70300  0.13500  0.24800  1.0000
  O   O2        1.0  0.13500  0.70300  0.25200  1.0000
  O   O3        1.0  0.86500  0.29700  0.74800  1.0000
  O   O4        1.0  0.29700  0.86500  0.75200  1.0000
