# generated using pymatgen
data_K2O
_symmetry_space_group_name_H-M   'P 1'
_cell_length_a   7.08899856
_cell_length_b   7.08899856
_cell_length_c   4.36407900
_cell_angle_alpha   90.00000000
_cell_angle_beta   90.00000000
_cell_angle_gamma   120.00000521
_symmetry_Int_Tables_number   1
_chemical_formula_structural   K2O
_chemical_formula_sum   'K6 O3'
_cell_volume   189.92974654
_cell_formula_units_Z   3
loop_
 _symmetry_equiv_pos_site_id
 _symmetry_equiv_pos_as_xyz
  1  'x, y, z'
loop_
 _atom_site_type_symbol
 _atom_site_label
 _atom_site_symmetry_multiplicity
 _atom_site_fract_x
 _atom_site_fract_y
 _atom_site_fract_z
 _atom_site_occupancy
  K  K0  1  0.26655100  0.92616300  0.07943600  1
  K  K1  1  0.67367300  0.07048400  0.57289900  1
  K  K2  1  0.39681100  0.32632700  0.57289900  1
  K  K3  1  0.07383700  0.34038800  0.07943600  1
  K  K4  1  0.92951600  0.60318900  0.57289900  1
  K  K5  1  0.65961200  0.73344900  0.07943600  1
  O  O6  1  0.00000000  0.00000000  0.48873500  1
  O  O7  1  0.66666700  0.33333300  0.07442500  1
  O  O8  1  0.33333300  0.66666700  0.58520500  1
