# generated using pymatgen
data_Sc2InOs
_symmetry_space_group_name_H-M   'P 1'
_cell_length_a   11.65569104
_cell_length_b   11.65569104
_cell_length_c   11.65569104
_cell_angle_alpha   126.47436112
_cell_angle_beta   117.91131548
_cell_angle_gamma   86.41281145
_symmetry_Int_Tables_number   1
_chemical_formula_structural   Sc2InOs
_chemical_formula_sum   'Sc2 In1 Os1'
_cell_volume   1072.10117050
_cell_formula_units_Z   1
loop_
 _symmetry_equiv_pos_site_id
 _symmetry_equiv_pos_as_xyz
  1  'x, y, z'
loop_
 _atom_site_type_symbol
 _atom_site_label
 _atom_site_symmetry_multiplicity
 _atom_site_fract_x
 _atom_site_fract_y
 _atom_site_fract_z
 _atom_site_occupancy
  Sc  Sc0  1  0.00000000  0.28628800  0.28628800  1
  Sc  Sc1  1  0.00000000  0.71371200  0.71371200  1
  In  In2  1  0.00000000  0.00000000  0.00000000  1
  Os  Os3  1  0.00000000  0.50000000  0.50000000  1
