# generated using pymatgen
data_VS2
_symmetry_space_group_name_H-M   'P 1'
_cell_length_a   3.19214651
_cell_length_b   3.19214651
_cell_length_c   11.34819089
_cell_angle_alpha   79.20450064
_cell_angle_beta   79.20450064
_cell_angle_gamma   59.99683905
_symmetry_Int_Tables_number   1
_chemical_formula_structural   VS2
_chemical_formula_sum   'V1 S2'
_cell_volume   97.77022849
_cell_formula_units_Z   1
loop_
 _symmetry_equiv_pos_site_id
 _symmetry_equiv_pos_as_xyz
  1  'x, y, z'
loop_
 _atom_site_type_symbol
 _atom_site_label
 _atom_site_symmetry_multiplicity
 _atom_site_fract_x
 _atom_site_fract_y
 _atom_site_fract_z
 _atom_site_occupancy
  V  V0  1  0.50000000  0.50000000  0.00000000  1
  S  S1  1  0.10773500  0.10773500  0.13282100  1
  S  S2  1  0.89226500  0.89226500  0.86717900  1
