# generated using pymatgen
data_TbZrO14
_symmetry_space_group_name_H-M   'P 1'
_cell_length_a   7.64378612
_cell_length_b   7.64378612
_cell_length_c   7.64378612
_cell_angle_alpha   60.00000000
_cell_angle_beta   60.00000000
_cell_angle_gamma   60.00000000
_symmetry_Int_Tables_number   1
_chemical_formula_structural   TbZrO14
_chemical_formula_sum   'Tb2 Zr2 O28'
_cell_volume   315.79887760
_cell_formula_units_Z   2
loop_
 _symmetry_equiv_pos_site_id
 _symmetry_equiv_pos_as_xyz
  1  'x, y, z'
loop_
 _atom_site_type_symbol
 _atom_site_label
 _atom_site_symmetry_multiplicity
 _atom_site_fract_x
 _atom_site_fract_y
 _atom_site_fract_z
 _atom_site_occupancy
  Tb  Tb0  1  0.00000000  0.00000000  0.00000000  1
  Tb  Tb1  1  0.75000000  0.75000000  0.75000000  1
  Zr  Zr2  1  0.50000000  0.50000000  0.50000000  1
  Zr  Zr3  1  0.25000000  0.25000000  0.25000000  1
  O  O4  1  0.87500000  0.87500000  0.87500000  1
  O  O5  1  0.37500000  0.87500000  0.87500000  1
  O  O6  1  0.87500000  0.37500000  0.87500000  1
  O  O7  1  0.87500000  0.87500000  0.37500000  1
  O  O8  1  0.50651300  0.50651300  0.18146700  1
  O  O9  1  0.80550800  0.18146700  0.50651300  1
  O  O10  1  0.18146700  0.80550800  0.50651300  1
  O  O11  1  0.50651300  0.18146700  0.50651300  1
  O  O12  1  0.94449200  0.24348700  0.56853300  1
  O  O13  1  0.24348700  0.24348700  0.56853300  1
  O  O14  1  0.50651300  0.50651300  0.80550800  1
  O  O15  1  0.18146700  0.50651300  0.80550800  1
  O  O16  1  0.24348700  0.56853300  0.24348700  1
  O  O17  1  0.94449200  0.56853300  0.24348700  1
  O  O18  1  0.80550800  0.50651300  0.18146700  1
  O  O19  1  0.24348700  0.94449200  0.24348700  1
  O  O20  1  0.56853300  0.94449200  0.24348700  1
  O  O21  1  0.50651300  0.80550800  0.50651300  1
  O  O22  1  0.56853300  0.24348700  0.94449200  1
  O  O23  1  0.24348700  0.24348700  0.94449200  1
  O  O24  1  0.18146700  0.50651300  0.50651300  1
  O  O25  1  0.50651300  0.18146700  0.80550800  1
  O  O26  1  0.80550800  0.50651300  0.50651300  1
  O  O27  1  0.50651300  0.80550800  0.18146700  1
  O  O28  1  0.24348700  0.56853300  0.94449200  1
  O  O29  1  0.56853300  0.24348700  0.24348700  1
  O  O30  1  0.24348700  0.94449200  0.56853300  1
  O  O31  1  0.94449200  0.24348700  0.24348700  1
