data_image0
_chemical_formula_structural       C4H16I4N8S4
_chemical_formula_sum              "C4 H16 I4 N8 S4"
_cell_length_a       10.9452
_cell_length_b       10.9452
_cell_length_c       9.27948
_cell_angle_alpha    56.0163
_cell_angle_beta     123.984
_cell_angle_gamma    146.769

_space_group_name_H-M_alt    "P 1"
_space_group_IT_number       1

loop_
  _space_group_symop_operation_xyz
  'x, y, z'

loop_
  _atom_site_type_symbol
  _atom_site_label
  _atom_site_symmetry_multiplicity
  _atom_site_fract_x
  _atom_site_fract_y
  _atom_site_fract_z
  _atom_site_occupancy
  C   C1        1.0  0.71000  0.00802  0.29800  1.0000
  C   C2        1.0  0.00802  0.71000  0.20200  1.0000
  C   C3        1.0  0.29000  0.99200  0.70200  1.0000
  C   C4        1.0  0.99200  0.29000  0.79800  1.0000
  H   H1        1.0  0.53100  0.06930  0.29500  1.0000
  H   H2        1.0  0.06930  0.53100  0.20500  1.0000
  H   H3        1.0  0.46900  0.93100  0.70500  1.0000
  H   H4        1.0  0.93100  0.46900  0.79500  1.0000
  H   H5        1.0  0.67700  0.43400  0.10500  1.0000
  H   H6        1.0  0.43400  0.67700  0.39500  1.0000
  H   H7        1.0  0.32300  0.56600  0.89500  1.0000
  H   H8        1.0  0.56600  0.32300  0.60500  1.0000
  H   H9        1.0  0.02080  0.18900  0.47600  1.0000
  H   H10       1.0  0.18900  0.02080  0.02430  1.0000
  H   H11       1.0  0.97900  0.81100  0.52400  1.0000
  H   H12       1.0  0.81100  0.97900  0.97600  1.0000
  H   H13       1.0  0.68500  0.82200  0.55300  1.0000
  H   H14       1.0  0.82200  0.68500  0.94700  1.0000
  H   H15       1.0  0.31500  0.17800  0.44700  1.0000
  H   H16       1.0  0.17800  0.31500  0.05330  1.0000
  I   I1        1.0  0.50000  0.00000  0.00000  1.0000
  I   I2        1.0  0.00000  0.50000  0.50000  1.0000
  I   I3        1.0  0.29200  0.29200  0.75000  1.0000
  I   I4        1.0  0.70800  0.70800  0.25000  1.0000
  N   N1        1.0  0.60100  0.83000  0.42600  1.0000
  N   N2        1.0  0.83000  0.60100  0.07390  1.0000
  N   N3        1.0  0.39900  0.17000  0.57400  1.0000
  N   N4        1.0  0.17000  0.39900  0.92600  1.0000
  N   N5        1.0  0.93500  0.18900  0.34300  1.0000
  N   N6        1.0  0.18900  0.93500  0.15700  1.0000
  N   N7        1.0  0.06530  0.81100  0.65700  1.0000
  N   N8        1.0  0.81100  0.06530  0.84300  1.0000
  S   S1        1.0  0.10400  0.43900  0.20100  1.0000
  S   S2        1.0  0.43900  0.10400  0.29900  1.0000
  S   S3        1.0  0.89600  0.56100  0.79900  1.0000
  S   S4        1.0  0.56100  0.89600  0.70100  1.0000
