# generated using pymatgen
data_NpScTc2
_symmetry_space_group_name_H-M   'P 1'
_cell_length_a   4.65659655
_cell_length_b   4.65659655
_cell_length_c   4.65659655
_cell_angle_alpha   60.00000000
_cell_angle_beta   60.00000000
_cell_angle_gamma   60.00000000
_symmetry_Int_Tables_number   1
_chemical_formula_structural   NpScTc2
_chemical_formula_sum   'Np1 Sc1 Tc2'
_cell_volume   71.39878793
_cell_formula_units_Z   1
loop_
 _symmetry_equiv_pos_site_id
 _symmetry_equiv_pos_as_xyz
  1  'x, y, z'
loop_
 _atom_site_type_symbol
 _atom_site_label
 _atom_site_symmetry_multiplicity
 _atom_site_fract_x
 _atom_site_fract_y
 _atom_site_fract_z
 _atom_site_occupancy
  Np  Np0  1  0.24999900  0.24999900  0.24999900  1
  Sc  Sc1  1  0.75000000  0.75000000  0.75000000  1
  Tc  Tc2  1  0.00000000  0.00000000  0.00000000  1
  Tc  Tc3  1  0.50000100  0.50000100  0.50000100  1
