data_image0
_chemical_formula_structural       Al4Ni2Tb2
_chemical_formula_sum              "Al4 Ni2 Tb2"
_cell_length_a       4.06487
_cell_length_b       5.51973
_cell_length_c       6.89446
_cell_angle_alpha    90
_cell_angle_beta     90
_cell_angle_gamma    68.3946

_space_group_name_H-M_alt    "P 1"
_space_group_IT_number       1

loop_
  _space_group_symop_operation_xyz
  'x, y, z'

loop_
  _atom_site_type_symbol
  _atom_site_label
  _atom_site_symmetry_multiplicity
  _atom_site_fract_x
  _atom_site_fract_y
  _atom_site_fract_z
  _atom_site_occupancy
  Al  Al1       1.0  0.34200  0.31600  0.05490  1.0000
  Al  Al2       1.0  0.34200  0.31600  0.44500  1.0000
  Al  Al3       1.0  0.65800  0.68400  0.55500  1.0000
  Al  Al4       1.0  0.65800  0.68400  0.94500  1.0000
  Ni  Ni1       1.0  0.78400  0.43300  0.25000  1.0000
  Ni  Ni2       1.0  0.21600  0.56700  0.75000  1.0000
  Tb  Tb1       1.0  0.06050  0.87900  0.25000  1.0000
  Tb  Tb2       1.0  0.93900  0.12100  0.75000  1.0000
