# generated using pymatgen
data_FeAg3F6
_symmetry_space_group_name_H-M   'P 1'
_cell_length_a   6.07127256
_cell_length_b   6.07127256
_cell_length_c   6.07127256
_cell_angle_alpha   60.00000000
_cell_angle_beta   60.00000000
_cell_angle_gamma   60.00000000
_symmetry_Int_Tables_number   1
_chemical_formula_structural   FeAg3F6
_chemical_formula_sum   'Fe1 Ag3 F6'
_cell_volume   158.24288556
_cell_formula_units_Z   1
loop_
 _symmetry_equiv_pos_site_id
 _symmetry_equiv_pos_as_xyz
  1  'x, y, z'
loop_
 _atom_site_type_symbol
 _atom_site_label
 _atom_site_symmetry_multiplicity
 _atom_site_fract_x
 _atom_site_fract_y
 _atom_site_fract_z
 _atom_site_occupancy
  Fe  Fe0  1  0.00000000  0.00000000  0.00000000  1
  Ag  Ag1  1  0.25000000  0.25000000  0.25000000  1
  Ag  Ag2  1  0.75000000  0.75000000  0.75000000  1
  Ag  Ag3  1  0.50000000  0.50000000  0.50000000  1
  F  F4  1  0.77358700  0.22641300  0.22641300  1
  F  F5  1  0.22641300  0.77358700  0.77358700  1
  F  F6  1  0.22641300  0.77358700  0.22641300  1
  F  F7  1  0.77358700  0.22641300  0.77358700  1
  F  F8  1  0.22641300  0.22641300  0.77358700  1
  F  F9  1  0.77358700  0.77358700  0.22641300  1
