data_image0
_chemical_formula_structural       C4Ni2Sc2
_chemical_formula_sum              "C4 Ni2 Sc2"
_cell_length_a       3.36754
_cell_length_b       3.36754
_cell_length_c       7.27715
_cell_angle_alpha    90
_cell_angle_beta     90
_cell_angle_gamma    90

_space_group_name_H-M_alt    "P 1"
_space_group_IT_number       1

loop_
  _space_group_symop_operation_xyz
  'x, y, z'

loop_
  _atom_site_type_symbol
  _atom_site_label
  _atom_site_symmetry_multiplicity
  _atom_site_fract_x
  _atom_site_fract_y
  _atom_site_fract_z
  _atom_site_occupancy
  C   C1        1.0  0.75000  0.75000  0.16500  1.0000
  C   C2        1.0  0.75000  0.75000  0.35400  1.0000
  C   C3        1.0  0.25000  0.25000  0.64600  1.0000
  C   C4        1.0  0.25000  0.25000  0.83500  1.0000
  Ni  Ni1       1.0  0.75000  0.25000  0.00000  1.0000
  Ni  Ni2       1.0  0.25000  0.75000  0.00000  1.0000
  Sc  Sc1       1.0  0.25000  0.25000  0.34300  1.0000
  Sc  Sc2       1.0  0.75000  0.75000  0.65700  1.0000
