# generated using pymatgen
data_Nd2CuTe2O
_symmetry_space_group_name_H-M   'P 1'
_cell_length_a   3.58528600
_cell_length_b   3.58528600
_cell_length_c   15.42493900
_cell_angle_alpha   90.00000000
_cell_angle_beta   90.00000000
_cell_angle_gamma   90.00000000
_symmetry_Int_Tables_number   1
_chemical_formula_structural   Nd2CuTe2O
_chemical_formula_sum   'Nd2 Cu1 Te2 O1'
_cell_volume   198.27641859
_cell_formula_units_Z   1
loop_
 _symmetry_equiv_pos_site_id
 _symmetry_equiv_pos_as_xyz
  1  'x, y, z'
loop_
 _atom_site_type_symbol
 _atom_site_label
 _atom_site_symmetry_multiplicity
 _atom_site_fract_x
 _atom_site_fract_y
 _atom_site_fract_z
 _atom_site_occupancy
  Nd  Nd0  1  0.50000000  0.50000000  0.63622000  1
  Nd  Nd1  1  0.50000000  0.50000000  0.36378000  1
  Cu  Cu2  1  0.50000000  0.50000000  0.00000000  1
  Te  Te3  1  0.50000000  0.50000000  0.15731100  1
  Te  Te4  1  0.50000000  0.50000000  0.84268900  1
  O  O5  1  0.50000000  0.50000000  0.50000000  1
