# generated using pymatgen
data_VCrB2
_symmetry_space_group_name_H-M   'P 1'
_cell_length_a   4.24449612
_cell_length_b   4.24449612
_cell_length_c   2.93562600
_cell_angle_alpha   90.00000000
_cell_angle_beta   90.00000000
_cell_angle_gamma   138.71191906
_symmetry_Int_Tables_number   1
_chemical_formula_structural   VCrB2
_chemical_formula_sum   'V1 Cr1 B2'
_cell_volume   34.89756959
_cell_formula_units_Z   1
loop_
 _symmetry_equiv_pos_site_id
 _symmetry_equiv_pos_as_xyz
  1  'x, y, z'
loop_
 _atom_site_type_symbol
 _atom_site_label
 _atom_site_symmetry_multiplicity
 _atom_site_fract_x
 _atom_site_fract_y
 _atom_site_fract_z
 _atom_site_occupancy
  V  V0  1  0.85267000  0.14733000  0.50000000  1
  Cr  Cr1  1  0.14619900  0.85380100  0.00000000  1
  B  B2  1  0.43757500  0.56242500  0.00000000  1
  B  B3  1  0.56355600  0.43644400  0.50000000  1
