# generated using pymatgen
data_HfSc
_symmetry_space_group_name_H-M   'P 1'
_cell_length_a   3.23772690
_cell_length_b   3.23772690
_cell_length_c   5.11135700
_cell_angle_alpha   90.00000000
_cell_angle_beta   90.00000000
_cell_angle_gamma   120.00001829
_symmetry_Int_Tables_number   1
_chemical_formula_structural   HfSc
_chemical_formula_sum   'Hf1 Sc1'
_cell_volume   46.40312110
_cell_formula_units_Z   1
loop_
 _symmetry_equiv_pos_site_id
 _symmetry_equiv_pos_as_xyz
  1  'x, y, z'
loop_
 _atom_site_type_symbol
 _atom_site_label
 _atom_site_symmetry_multiplicity
 _atom_site_fract_x
 _atom_site_fract_y
 _atom_site_fract_z
 _atom_site_occupancy
  Hf  Hf0  1  0.66666700  0.33333300  0.50000000  1
  Sc  Sc1  1  0.33333300  0.66666700  0.00000000  1
