# generated using pymatgen
data_Er3Mg
_symmetry_space_group_name_H-M   'P 1'
_cell_length_a   3.51892000
_cell_length_b   3.51892000
_cell_length_c   9.33655300
_cell_angle_alpha   90.00000000
_cell_angle_beta   90.00000000
_cell_angle_gamma   90.00000000
_symmetry_Int_Tables_number   1
_chemical_formula_structural   Er3Mg
_chemical_formula_sum   'Er3 Mg1'
_cell_volume   115.61264950
_cell_formula_units_Z   1
loop_
 _symmetry_equiv_pos_site_id
 _symmetry_equiv_pos_as_xyz
  1  'x, y, z'
loop_
 _atom_site_type_symbol
 _atom_site_label
 _atom_site_symmetry_multiplicity
 _atom_site_fract_x
 _atom_site_fract_y
 _atom_site_fract_z
 _atom_site_occupancy
  Er  Er0  1  0.50000000  0.50000000  0.75798900  1
  Er  Er1  1  0.00000000  0.00000000  0.50000000  1
  Er  Er2  1  0.50000000  0.50000000  0.24201100  1
  Mg  Mg3  1  0.00000000  0.00000000  0.00000000  1
