data_image0
_chemical_formula_structural       Al2O4Tl2
_chemical_formula_sum              "Al2 O4 Tl2"
_cell_length_a       5.6515
_cell_length_b       5.6515
_cell_length_c       5.66012
_cell_angle_alpha    119.95
_cell_angle_beta     60.0503
_cell_angle_gamma    120

_space_group_name_H-M_alt    "P 1"
_space_group_IT_number       1

loop_
  _space_group_symop_operation_xyz
  'x, y, z'

loop_
  _atom_site_type_symbol
  _atom_site_label
  _atom_site_symmetry_multiplicity
  _atom_site_fract_x
  _atom_site_fract_y
  _atom_site_fract_z
  _atom_site_occupancy
  Al  Al1       1.0  0.62500  0.37500  0.12500  1.0000
  Al  Al2       1.0  0.37500  0.62500  0.87500  1.0000
  O   O1        1.0  0.00000  0.50000  0.00000  1.0000
  O   O2        1.0  0.50000  0.00000  0.00000  1.0000
  O   O3        1.0  0.50000  0.50000  0.00000  1.0000
  O   O4        1.0  0.50000  0.50000  0.50000  1.0000
  Tl  Tl1       1.0  0.87700  0.12300  0.36900  1.0000
  Tl  Tl2       1.0  0.12300  0.87700  0.63100  1.0000
