# generated using pymatgen
data_CdCuP2O7
_symmetry_space_group_name_H-M   'P 1'
_cell_length_a   5.57273109
_cell_length_b   5.57273109
_cell_length_c   4.61789091
_cell_angle_alpha   79.70698564
_cell_angle_beta   79.70698564
_cell_angle_gamma   102.88964720
_symmetry_Int_Tables_number   1
_chemical_formula_structural   CdCuP2O7
_chemical_formula_sum   'Cd1 Cu1 P2 O7'
_cell_volume   133.92840328
_cell_formula_units_Z   1
loop_
 _symmetry_equiv_pos_site_id
 _symmetry_equiv_pos_as_xyz
  1  'x, y, z'
loop_
 _atom_site_type_symbol
 _atom_site_label
 _atom_site_symmetry_multiplicity
 _atom_site_fract_x
 _atom_site_fract_y
 _atom_site_fract_z
 _atom_site_occupancy
  Cd  Cd0  1  0.69239000  0.30761000  0.50000000  1
  Cu  Cu1  1  0.30972300  0.69027700  0.50000000  1
  P  P2  1  0.21104400  0.19831500  0.09043400  1
  P  P3  1  0.80168500  0.78895600  0.90956600  1
  O  O4  1  0.08005000  0.34537700  0.28213600  1
  O  O5  1  0.65462300  0.91995000  0.71786400  1
  O  O6  1  0.01261000  0.98739000  0.00000000  1
  O  O7  1  0.37065200  0.05237500  0.25809100  1
  O  O8  1  0.94762500  0.62934800  0.74190900  1
  O  O9  1  0.36460900  0.37961000  0.78701500  1
  O  O10  1  0.62039000  0.63539100  0.21298500  1
