# generated using pymatgen
data_SbO2
_symmetry_space_group_name_H-M   'P 1'
_cell_length_a   7.48546067
_cell_length_b   7.48546067
_cell_length_c   7.48546067
_cell_angle_alpha   60.00000000
_cell_angle_beta   60.00000000
_cell_angle_gamma   60.00000000
_symmetry_Int_Tables_number   1
_chemical_formula_structural   SbO2
_chemical_formula_sum   'Sb8 O16'
_cell_volume   296.57913943
_cell_formula_units_Z   8
loop_
 _symmetry_equiv_pos_site_id
 _symmetry_equiv_pos_as_xyz
  1  'x, y, z'
loop_
 _atom_site_type_symbol
 _atom_site_label
 _atom_site_symmetry_multiplicity
 _atom_site_fract_x
 _atom_site_fract_y
 _atom_site_fract_z
 _atom_site_occupancy
  Sb  Sb0  1  0.62500000  0.62500000  0.12500000  1
  Sb  Sb1  1  0.62500000  0.12500000  0.62500000  1
  Sb  Sb2  1  0.12500000  0.62500000  0.62500000  1
  Sb  Sb3  1  0.62500000  0.62500000  0.62500000  1
  Sb  Sb4  1  0.12500000  0.12500000  0.62500000  1
  Sb  Sb5  1  0.12500000  0.62500000  0.12500000  1
  Sb  Sb6  1  0.62500000  0.12500000  0.12500000  1
  Sb  Sb7  1  0.12500000  0.12500000  0.12500000  1
  O  O8  1  0.25000000  0.25000000  0.25000000  1
  O  O9  1  0.00000000  0.00000000  0.00000000  1
  O  O10  1  0.75000000  0.75000000  0.75000000  1
  O  O11  1  0.50000000  0.50000000  0.50000000  1
  O  O12  1  0.27077600  0.72922400  0.27077600  1
  O  O13  1  0.52077600  0.97922400  0.52077600  1
  O  O14  1  0.27077600  0.27077600  0.72922400  1
  O  O15  1  0.72922400  0.27077600  0.27077600  1
  O  O16  1  0.72922400  0.27077600  0.72922400  1
  O  O17  1  0.97922400  0.52077600  0.52077600  1
  O  O18  1  0.52077600  0.97922400  0.97922400  1
  O  O19  1  0.97922400  0.52077600  0.97922400  1
  O  O20  1  0.52077600  0.52077600  0.97922400  1
  O  O21  1  0.97922400  0.97922400  0.52077600  1
  O  O22  1  0.72922400  0.72922400  0.27077600  1
  O  O23  1  0.27077600  0.72922400  0.72922400  1
