# generated using pymatgen
data_BaSrZr2O6
_symmetry_space_group_name_H-M   'P 1'
_cell_length_a   4.22790775
_cell_length_b   5.97524380
_cell_length_c   5.97524380
_cell_angle_alpha   89.77324697
_cell_angle_beta   90.00000000
_cell_angle_gamma   90.00000000
_symmetry_Int_Tables_number   1
_chemical_formula_structural   BaSrZr2O6
_chemical_formula_sum   'Ba1 Sr1 Zr2 O6'
_cell_volume   150.95008463
_cell_formula_units_Z   1
loop_
 _symmetry_equiv_pos_site_id
 _symmetry_equiv_pos_as_xyz
  1  'x, y, z'
loop_
 _atom_site_type_symbol
 _atom_site_label
 _atom_site_symmetry_multiplicity
 _atom_site_fract_x
 _atom_site_fract_y
 _atom_site_fract_z
 _atom_site_occupancy
  Ba  Ba0  1  0.50000000  0.00000000  0.00000000  1
  Sr  Sr1  1  0.50000000  0.50000000  0.50000000  1
  Zr  Zr2  1  0.00000000  0.00000000  0.50000000  1
  Zr  Zr3  1  0.00000000  0.50000000  0.00000000  1
  O  O4  1  0.50000000  0.00000000  0.50000000  1
  O  O5  1  0.50000000  0.50000000  0.00000000  1
  O  O6  1  -0.00000000  0.26621047  0.73378953  1
  O  O7  1  -0.00000000  0.73378953  0.26621047  1
  O  O8  1  -0.00000000  0.75915641  0.75915641  1
  O  O9  1  0.00000000  0.24084359  0.24084359  1
