# generated using pymatgen
data_BeGeIr2
_symmetry_space_group_name_H-M   'P 1'
_cell_length_a   9.81321047
_cell_length_b   9.81321047
_cell_length_c   9.81321047
_cell_angle_alpha   125.06525229
_cell_angle_beta   118.35749025
_cell_angle_gamma   87.16382347
_symmetry_Int_Tables_number   1
_chemical_formula_structural   BeGeIr2
_chemical_formula_sum   'Be1 Ge1 Ir2'
_cell_volume   647.10115688
_cell_formula_units_Z   1
loop_
 _symmetry_equiv_pos_site_id
 _symmetry_equiv_pos_as_xyz
  1  'x, y, z'
loop_
 _atom_site_type_symbol
 _atom_site_label
 _atom_site_symmetry_multiplicity
 _atom_site_fract_x
 _atom_site_fract_y
 _atom_site_fract_z
 _atom_site_occupancy
  Be  Be0  1  0.00000000  0.00000000  0.00000000  1
  Ge  Ge1  1  0.00000000  0.50000000  0.50000000  1
  Ir  Ir2  1  0.00000000  0.24540700  0.24540700  1
  Ir  Ir3  1  0.00000000  0.75459300  0.75459300  1
