data_image0
_chemical_formula_structural       Au2Na2O4
_chemical_formula_sum              "Au2 Na2 O4"
_cell_length_a       3.62081
_cell_length_b       5.90062
_cell_length_c       5.90637
_cell_angle_alpha    90
_cell_angle_beta     72.1505
_cell_angle_gamma    90

_space_group_name_H-M_alt    "P 1"
_space_group_IT_number       1

loop_
  _space_group_symop_operation_xyz
  'x, y, z'

loop_
  _atom_site_type_symbol
  _atom_site_label
  _atom_site_symmetry_multiplicity
  _atom_site_fract_x
  _atom_site_fract_y
  _atom_site_fract_z
  _atom_site_occupancy
  Au  Au1       1.0  0.00367  0.75000  0.99300  1.0000
  Au  Au2       1.0  0.99600  0.25000  0.00734  1.0000
  Na  Na1       1.0  0.28600  0.75000  0.42900  1.0000
  Na  Na2       1.0  0.71400  0.25000  0.57100  1.0000
  O   O1        1.0  0.87600  0.99300  0.24800  1.0000
  O   O2        1.0  0.87600  0.50700  0.24800  1.0000
  O   O3        1.0  0.12400  0.00718  0.75200  1.0000
  O   O4        1.0  0.12400  0.49300  0.75200  1.0000
