# generated using pymatgen
data_Mg2Ti
_symmetry_space_group_name_H-M   'P 1'
_cell_length_a   5.97840187
_cell_length_b   5.97840187
_cell_length_c   5.97840174
_cell_angle_alpha   52.56080629
_cell_angle_beta   52.56080629
_cell_angle_gamma   52.56079873
_symmetry_Int_Tables_number   1
_chemical_formula_structural   Mg2Ti
_chemical_formula_sum   'Mg4 Ti2'
_cell_volume   124.70962130
_cell_formula_units_Z   2
loop_
 _symmetry_equiv_pos_site_id
 _symmetry_equiv_pos_as_xyz
  1  'x, y, z'
loop_
 _atom_site_type_symbol
 _atom_site_label
 _atom_site_symmetry_multiplicity
 _atom_site_fract_x
 _atom_site_fract_y
 _atom_site_fract_z
 _atom_site_occupancy
  Mg  Mg0  1  0.00000000  0.66851600  0.33148400  1
  Mg  Mg1  1  0.33148400  0.00000000  0.66851600  1
  Mg  Mg2  1  0.50000000  0.50000000  0.50000000  1
  Mg  Mg3  1  0.66851600  0.33148400  0.00000000  1
  Ti  Ti4  1  0.16757700  0.16757700  0.16757700  1
  Ti  Ti5  1  0.83242300  0.83242300  0.83242300  1
