# generated using pymatgen
data_Np(OF)2
_symmetry_space_group_name_H-M   'P 1'
_cell_length_a   4.77595386
_cell_length_b   4.77595386
_cell_length_c   3.78062343
_cell_angle_alpha   83.50431409
_cell_angle_beta   83.50431409
_cell_angle_gamma   54.71194388
_symmetry_Int_Tables_number   1
_chemical_formula_structural   Np(OF)2
_chemical_formula_sum   'Np1 O2 F2'
_cell_volume   69.81669596
_cell_formula_units_Z   1
loop_
 _symmetry_equiv_pos_site_id
 _symmetry_equiv_pos_as_xyz
  1  'x, y, z'
loop_
 _atom_site_type_symbol
 _atom_site_label
 _atom_site_symmetry_multiplicity
 _atom_site_fract_x
 _atom_site_fract_y
 _atom_site_fract_z
 _atom_site_occupancy
  Np  Np0  1  0.00000000  0.00000000  0.00000000  1
  O  O1  1  0.56504800  0.56504800  0.11238700  1
  O  O2  1  0.43495200  0.43495200  0.88761300  1
  F  F3  1  0.84486700  0.84486700  0.52214900  1
  F  F4  1  0.15513300  0.15513300  0.47785100  1
