# generated using pymatgen
data_Ta2MnRe
_symmetry_space_group_name_H-M   'P 1'
_cell_length_a   10.65848720
_cell_length_b   10.65848720
_cell_length_c   10.65848720
_cell_angle_alpha   127.16880658
_cell_angle_beta   117.82858607
_cell_angle_gamma   85.92895947
_symmetry_Int_Tables_number   1
_chemical_formula_structural   Ta2MnRe
_chemical_formula_sum   'Ta2 Mn1 Re1'
_cell_volume   814.11483649
_cell_formula_units_Z   1
loop_
 _symmetry_equiv_pos_site_id
 _symmetry_equiv_pos_as_xyz
  1  'x, y, z'
loop_
 _atom_site_type_symbol
 _atom_site_label
 _atom_site_symmetry_multiplicity
 _atom_site_fract_x
 _atom_site_fract_y
 _atom_site_fract_z
 _atom_site_occupancy
  Ta  Ta0  1  0.00000000  0.25433500  0.25433500  1
  Ta  Ta1  1  0.00000000  0.74566500  0.74566500  1
  Mn  Mn2  1  0.00000000  0.00000000  0.00000000  1
  Re  Re3  1  0.00000000  0.50000000  0.50000000  1
