# generated using pymatgen
data_Mo3W(SeS)4
_symmetry_space_group_name_H-M   'P 1'
_cell_length_a   3.25232246
_cell_length_b   3.25232246
_cell_length_c   36.85370700
_cell_angle_alpha   90.00000000
_cell_angle_beta   90.00000000
_cell_angle_gamma   120.00000928
_symmetry_Int_Tables_number   1
_chemical_formula_structural   Mo3W(SeS)4
_chemical_formula_sum   'Mo3 W1 Se4 S4'
_cell_volume   337.59730063
_cell_formula_units_Z   1
loop_
 _symmetry_equiv_pos_site_id
 _symmetry_equiv_pos_as_xyz
  1  'x, y, z'
loop_
 _atom_site_type_symbol
 _atom_site_label
 _atom_site_symmetry_multiplicity
 _atom_site_fract_x
 _atom_site_fract_y
 _atom_site_fract_z
 _atom_site_occupancy
  Mo  Mo0  1  0.00000000  0.00000000  0.09389800  1
  Mo  Mo1  1  0.33333300  0.66666700  0.28181600  1
  Mo  Mo2  1  0.33333300  0.66666700  0.65754400  1
  W  W3  1  0.00000000  0.00000000  0.46966100  1
  Se  Se4  1  0.00000000  0.00000000  0.70364900  1
  Se  Se5  1  0.33333300  0.66666700  0.04779700  1
  Se  Se6  1  0.33333300  0.66666700  0.14003100  1
  Se  Se7  1  0.00000000  0.00000000  0.61144300  1
  S  S8  1  0.00000000  0.00000000  0.32375200  1
  S  S9  1  0.33333300  0.66666700  0.42761400  1
  S  S10  1  0.33333300  0.66666700  0.51169000  1
  S  S11  1  0.00000000  0.00000000  0.23985400  1
