# generated using pymatgen
data_Te4MoW3(SeS)2
_symmetry_space_group_name_H-M   'P 1'
_cell_length_a   3.39739939
_cell_length_b   3.39739939
_cell_length_c   41.15675700
_cell_angle_alpha   90.00000000
_cell_angle_beta   90.00000000
_cell_angle_gamma   119.99998808
_symmetry_Int_Tables_number   1
_chemical_formula_structural   Te4MoW3(SeS)2
_chemical_formula_sum   'Te4 Mo1 W3 Se2 S2'
_cell_volume   411.40071193
_cell_formula_units_Z   1
loop_
 _symmetry_equiv_pos_site_id
 _symmetry_equiv_pos_as_xyz
  1  'x, y, z'
loop_
 _atom_site_type_symbol
 _atom_site_label
 _atom_site_symmetry_multiplicity
 _atom_site_fract_x
 _atom_site_fract_y
 _atom_site_fract_z
 _atom_site_occupancy
  Te  Te0  1  0.33333300  0.66666700  0.70575200  1
  Te  Te1  1  0.66666700  0.33333300  0.42184600  1
  Te  Te2  1  0.66666700  0.33333300  0.51337200  1
  Te  Te3  1  0.33333300  0.66666700  0.61421900  1
  Mo  Mo4  1  0.66666700  0.33333300  0.28135600  1
  W  W5  1  0.33333300  0.66666700  0.09392000  1
  W  W6  1  0.33333300  0.66666700  0.46760300  1
  W  W7  1  0.66666700  0.33333300  0.66003800  1
  Se  Se8  1  0.33333300  0.66666700  0.32144800  1
  Se  Se9  1  0.33333300  0.66666700  0.24132000  1
  S  S10  1  0.66666700  0.33333300  0.05736200  1
  S  S11  1  0.66666700  0.33333300  0.13051200  1
