# generated using pymatgen
data_Mg14ZnCuO16
_symmetry_space_group_name_H-M   'P 1'
_cell_length_a   4.25057700
_cell_length_b   8.52927500
_cell_length_c   8.53950500
_cell_angle_alpha   90.00000000
_cell_angle_beta   90.00000000
_cell_angle_gamma   90.00000000
_symmetry_Int_Tables_number   1
_chemical_formula_structural   Mg14ZnCuO16
_chemical_formula_sum   'Mg14 Zn1 Cu1 O16'
_cell_volume   309.59411891
_cell_formula_units_Z   1
loop_
 _symmetry_equiv_pos_site_id
 _symmetry_equiv_pos_as_xyz
  1  'x, y, z'
loop_
 _atom_site_type_symbol
 _atom_site_label
 _atom_site_symmetry_multiplicity
 _atom_site_fract_x
 _atom_site_fract_y
 _atom_site_fract_z
 _atom_site_occupancy
  Mg  Mg0  1  0.00000000  0.00000000  0.50000000  1
  Mg  Mg1  1  0.00000000  0.50000000  0.50000000  1
  Mg  Mg2  1  0.50000000  0.74927900  0.00000000  1
  Mg  Mg3  1  0.50000000  0.25072100  0.00000000  1
  Mg  Mg4  1  0.50000000  0.74995400  0.50000000  1
  Mg  Mg5  1  0.50000000  0.25004600  0.50000000  1
  Mg  Mg6  1  0.50000000  0.00000000  0.75017200  1
  Mg  Mg7  1  0.50000000  0.50000000  0.75090400  1
  Mg  Mg8  1  0.50000000  0.00000000  0.24982800  1
  Mg  Mg9  1  0.50000000  0.50000000  0.24909600  1
  Mg  Mg10  1  0.00000000  0.74935200  0.75084900  1
  Mg  Mg11  1  0.00000000  0.25064800  0.75084900  1
  Mg  Mg12  1  0.00000000  0.74935200  0.24915100  1
  Mg  Mg13  1  0.00000000  0.25064800  0.24915100  1
  Zn  Zn14  1  0.00000000  0.00000000  0.00000000  1
  Cu  Cu15  1  0.00000000  0.50000000  0.00000000  1
  O  O16  1  0.00000000  0.00000000  0.74658100  1
  O  O17  1  0.00000000  0.50000000  0.74636200  1
  O  O18  1  0.00000000  0.00000000  0.25341900  1
  O  O19  1  0.00000000  0.50000000  0.25363800  1
  O  O20  1  0.50000000  0.74991600  0.75094700  1
  O  O21  1  0.50000000  0.25008400  0.75094700  1
  O  O22  1  0.50000000  0.74991600  0.24905300  1
  O  O23  1  0.50000000  0.25008400  0.24905300  1
  O  O24  1  0.50000000  0.00000000  0.00000000  1
  O  O25  1  0.50000000  0.50000000  0.00000000  1
  O  O26  1  0.50000000  0.00000000  0.50000000  1
  O  O27  1  0.50000000  0.50000000  0.50000000  1
  O  O28  1  0.00000000  0.75114200  0.00000000  1
  O  O29  1  0.00000000  0.24885800  0.00000000  1
  O  O30  1  0.00000000  0.74994100  0.50000000  1
  O  O31  1  0.00000000  0.25005900  0.50000000  1
