# generated using pymatgen
data_CdFeRh2
_symmetry_space_group_name_H-M   'P 1'
_cell_length_a   10.69157324
_cell_length_b   10.69157324
_cell_length_c   10.69157324
_cell_angle_alpha   125.69372091
_cell_angle_beta   118.09043551
_cell_angle_gamma   86.88634253
_symmetry_Int_Tables_number   1
_chemical_formula_structural   CdFeRh2
_chemical_formula_sum   'Cd1 Fe1 Rh2'
_cell_volume   833.18459405
_cell_formula_units_Z   1
loop_
 _symmetry_equiv_pos_site_id
 _symmetry_equiv_pos_as_xyz
  1  'x, y, z'
loop_
 _atom_site_type_symbol
 _atom_site_label
 _atom_site_symmetry_multiplicity
 _atom_site_fract_x
 _atom_site_fract_y
 _atom_site_fract_z
 _atom_site_occupancy
  Cd  Cd0  1  0.00000000  0.50000000  0.50000000  1
  Fe  Fe1  1  0.00000000  0.00000000  0.00000000  1
  Rh  Rh2  1  0.00000000  0.22005000  0.22005000  1
  Rh  Rh3  1  0.00000000  0.77995000  0.77995000  1
