# generated using pymatgen
data_Nd2In8Co
_symmetry_space_group_name_H-M   'P 1'
_cell_length_a   4.68215000
_cell_length_b   4.68215000
_cell_length_c   12.27621600
_cell_angle_alpha   90.00000000
_cell_angle_beta   90.00000000
_cell_angle_gamma   90.00000000
_symmetry_Int_Tables_number   1
_chemical_formula_structural   Nd2In8Co
_chemical_formula_sum   'Nd2 In8 Co1'
_cell_volume   269.12569664
_cell_formula_units_Z   1
loop_
 _symmetry_equiv_pos_site_id
 _symmetry_equiv_pos_as_xyz
  1  'x, y, z'
loop_
 _atom_site_type_symbol
 _atom_site_label
 _atom_site_symmetry_multiplicity
 _atom_site_fract_x
 _atom_site_fract_y
 _atom_site_fract_z
 _atom_site_occupancy
  Nd  Nd0  1  0.00000000  0.00000000  0.69536700  1
  Nd  Nd1  1  0.00000000  0.00000000  0.30463300  1
  In  In2  1  0.50000000  0.00000000  0.88338400  1
  In  In3  1  0.00000000  0.50000000  0.88338400  1
  In  In4  1  0.50000000  0.00000000  0.11661600  1
  In  In5  1  0.00000000  0.50000000  0.11661600  1
  In  In6  1  0.50000000  0.00000000  0.50000000  1
  In  In7  1  0.00000000  0.50000000  0.50000000  1
  In  In8  1  0.50000000  0.50000000  0.69541600  1
  In  In9  1  0.50000000  0.50000000  0.30458400  1
  Co  Co10  1  0.00000000  0.00000000  0.00000000  1
