# generated using pymatgen
data_YAg2Hg
_symmetry_space_group_name_H-M   'P 1'
_cell_length_a   12.13571888
_cell_length_b   12.13571888
_cell_length_c   12.13571888
_cell_angle_alpha   122.73833192
_cell_angle_beta   119.09889965
_cell_angle_gamma   88.44584559
_symmetry_Int_Tables_number   1
_chemical_formula_structural   YAg2Hg
_chemical_formula_sum   'Y1 Ag2 Hg1'
_cell_volume   1244.13883019
_cell_formula_units_Z   1
loop_
 _symmetry_equiv_pos_site_id
 _symmetry_equiv_pos_as_xyz
  1  'x, y, z'
loop_
 _atom_site_type_symbol
 _atom_site_label
 _atom_site_symmetry_multiplicity
 _atom_site_fract_x
 _atom_site_fract_y
 _atom_site_fract_z
 _atom_site_occupancy
  Y  Y0  1  0.00000000  0.00000000  0.00000000  1
  Ag  Ag1  1  0.00000000  0.24733100  0.24733100  1
  Ag  Ag2  1  0.00000000  0.75266900  0.75266900  1
  Hg  Hg3  1  0.00000000  0.50000000  0.50000000  1
