# generated using pymatgen
data_TaSiTc2
_symmetry_space_group_name_H-M   'P 1'
_cell_length_a   10.46179698
_cell_length_b   10.46179698
_cell_length_c   10.46179698
_cell_angle_alpha   128.32237270
_cell_angle_beta   117.36453252
_cell_angle_gamma   85.42663531
_symmetry_Int_Tables_number   1
_chemical_formula_structural   TaSiTc2
_chemical_formula_sum   'Ta1 Si1 Tc2'
_cell_volume   762.38276573
_cell_formula_units_Z   1
loop_
 _symmetry_equiv_pos_site_id
 _symmetry_equiv_pos_as_xyz
  1  'x, y, z'
loop_
 _atom_site_type_symbol
 _atom_site_label
 _atom_site_symmetry_multiplicity
 _atom_site_fract_x
 _atom_site_fract_y
 _atom_site_fract_z
 _atom_site_occupancy
  Ta  Ta0  1  0.00000000  0.50000000  0.50000000  1
  Si  Si1  1  0.00000000  0.00000000  0.00000000  1
  Tc  Tc2  1  0.00000000  0.25374400  0.25374400  1
  Tc  Tc3  1  0.00000000  0.74625600  0.74625600  1
