# generated using pymatgen
data_CaMn3V4O12
_symmetry_space_group_name_H-M   'P 1'
_cell_length_a   6.52433921
_cell_length_b   6.52433921
_cell_length_c   6.52433921
_cell_angle_alpha   109.47122063
_cell_angle_beta   109.47122063
_cell_angle_gamma   109.47122063
_symmetry_Int_Tables_number   1
_chemical_formula_structural   CaMn3V4O12
_chemical_formula_sum   'Ca1 Mn3 V4 O12'
_cell_volume   213.79015750
_cell_formula_units_Z   1
loop_
 _symmetry_equiv_pos_site_id
 _symmetry_equiv_pos_as_xyz
  1  'x, y, z'
loop_
 _atom_site_type_symbol
 _atom_site_label
 _atom_site_symmetry_multiplicity
 _atom_site_fract_x
 _atom_site_fract_y
 _atom_site_fract_z
 _atom_site_occupancy
  Ca  Ca0  1  0.00000000  0.00000000  0.00000000  1
  Mn  Mn1  1  0.50000000  0.00000000  0.50000000  1
  Mn  Mn2  1  0.00000000  0.50000000  0.50000000  1
  Mn  Mn3  1  0.50000000  0.50000000  0.00000000  1
  V  V4  1  0.00000000  0.00000000  0.50000000  1
  V  V5  1  0.50000000  0.00000000  0.00000000  1
  V  V6  1  0.00000000  0.50000000  0.00000000  1
  V  V7  1  0.50000000  0.50000000  0.50000000  1
  O  O8  1  0.69939800  0.80952000  0.50891800  1
  O  O9  1  0.69939800  0.19048000  0.88987800  1
  O  O10  1  0.30060200  0.80952000  0.11012200  1
  O  O11  1  0.30060200  0.19048000  0.49108200  1
  O  O12  1  0.80952000  0.50891800  0.69939800  1
  O  O13  1  0.19048000  0.88987800  0.69939800  1
  O  O14  1  0.80952000  0.11012200  0.30060200  1
  O  O15  1  0.19048000  0.49108200  0.30060200  1
  O  O16  1  0.50891800  0.69939800  0.80952000  1
  O  O17  1  0.88987800  0.69939800  0.19048000  1
  O  O18  1  0.11012200  0.30060200  0.80952000  1
  O  O19  1  0.49108200  0.30060200  0.19048000  1
