# generated using pymatgen
data_Nd(Al2Cr)4
_symmetry_space_group_name_H-M   'P 1'
_cell_length_a   5.06012100
_cell_length_b   6.84892539
_cell_length_c   6.84892539
_cell_angle_alpha   82.15673342
_cell_angle_beta   68.32076968
_cell_angle_gamma   68.32076968
_symmetry_Int_Tables_number   1
_chemical_formula_structural   Nd(Al2Cr)4
_chemical_formula_sum   'Nd1 Al8 Cr4'
_cell_volume   204.96814684
_cell_formula_units_Z   1
loop_
 _symmetry_equiv_pos_site_id
 _symmetry_equiv_pos_as_xyz
  1  'x, y, z'
loop_
 _atom_site_type_symbol
 _atom_site_label
 _atom_site_symmetry_multiplicity
 _atom_site_fract_x
 _atom_site_fract_y
 _atom_site_fract_z
 _atom_site_occupancy
  Nd  Nd0  1  0.00000000  0.00000000  0.00000000  1
  Al  Al1  1  0.00000000  0.34077800  0.65922200  1
  Al  Al2  1  0.00000000  0.65922200  0.34077800  1
  Al  Al3  1  0.65922200  0.34077800  0.34077800  1
  Al  Al4  1  0.34077800  0.65922200  0.65922200  1
  Al  Al5  1  0.50000000  0.77387900  0.22612100  1
  Al  Al6  1  0.50000000  0.22612100  0.77387900  1
  Al  Al7  1  0.72612100  0.77387900  0.77387900  1
  Al  Al8  1  0.27387900  0.22612100  0.22612100  1
  Cr  Cr9  1  0.00000000  0.00000000  0.50000000  1
  Cr  Cr10  1  0.50000000  0.00000000  0.50000000  1
  Cr  Cr11  1  0.50000000  0.50000000  0.00000000  1
  Cr  Cr12  1  0.00000000  0.50000000  0.00000000  1
