data_image0
_chemical_formula_structural       Ag4S2
_chemical_formula_sum              "Ag4 S2"
_cell_length_a       4.27021
_cell_length_b       7.34134
_cell_length_c       4.81078
_cell_angle_alpha    90
_cell_angle_beta     124.107
_cell_angle_gamma    90

_space_group_name_H-M_alt    "P 1"
_space_group_IT_number       1

loop_
  _space_group_symop_operation_xyz
  'x, y, z'

loop_
  _atom_site_type_symbol
  _atom_site_label
  _atom_site_symmetry_multiplicity
  _atom_site_fract_x
  _atom_site_fract_y
  _atom_site_fract_z
  _atom_site_occupancy
  Ag  Ag1       1.0  0.22900  0.75000  0.11300  1.0000
  Ag  Ag2       1.0  0.00000  0.00000  0.50000  1.0000
  Ag  Ag3       1.0  0.00000  0.50000  0.50000  1.0000
  Ag  Ag4       1.0  0.77100  0.25000  0.88700  1.0000
  S   S1        1.0  0.55100  0.25000  0.27800  1.0000
  S   S2        1.0  0.44900  0.75000  0.72200  1.0000
