data_image0
_chemical_formula_structural       Au2Ca4N2
_chemical_formula_sum              "Au2 Ca4 N2"
_cell_length_a       3.54748
_cell_length_b       4.94293
_cell_length_c       9.20429
_cell_angle_alpha    90
_cell_angle_beta     78.8891
_cell_angle_gamma    90

_space_group_name_H-M_alt    "P 1"
_space_group_IT_number       1

loop_
  _space_group_symop_operation_xyz
  'x, y, z'

loop_
  _atom_site_type_symbol
  _atom_site_label
  _atom_site_symmetry_multiplicity
  _atom_site_fract_x
  _atom_site_fract_y
  _atom_site_fract_z
  _atom_site_occupancy
  Au  Au1       1.0  0.95900  0.25000  0.08140  1.0000
  Au  Au2       1.0  0.04070  0.75000  0.91900  1.0000
  Ca  Ca1       1.0  0.39600  0.75000  0.20700  1.0000
  Ca  Ca2       1.0  0.78400  0.25000  0.43200  1.0000
  Ca  Ca3       1.0  0.21600  0.75000  0.56800  1.0000
  Ca  Ca4       1.0  0.60400  0.25000  0.79300  1.0000
  N   N1        1.0  0.80700  0.75000  0.38600  1.0000
  N   N2        1.0  0.19300  0.25000  0.61400  1.0000
