data_image0
_chemical_formula_structural       B72C16H88
_chemical_formula_sum              "B72 C16 H88"
_cell_length_a       10.954
_cell_length_b       10.954
_cell_length_c       21.6228
_cell_angle_alpha    86.3914
_cell_angle_beta     93.6086
_cell_angle_gamma    143.175

_space_group_name_H-M_alt    "P 1"
_space_group_IT_number       1

loop_
  _space_group_symop_operation_xyz
  'x, y, z'

loop_
  _atom_site_type_symbol
  _atom_site_label
  _atom_site_symmetry_multiplicity
  _atom_site_fract_x
  _atom_site_fract_y
  _atom_site_fract_z
  _atom_site_occupancy
  B   B1        1.0  0.41700  0.83100  0.12900  1.0000
  B   B2        1.0  0.83100  0.41700  0.37100  1.0000
  B   B3        1.0  0.58300  0.16900  0.87100  1.0000
  B   B4        1.0  0.16900  0.58300  0.62900  1.0000
  B   B5        1.0  0.68000  0.01040  0.14100  1.0000
  B   B6        1.0  0.01040  0.68000  0.35900  1.0000
  B   B7        1.0  0.32000  0.99000  0.85900  1.0000
  B   B8        1.0  0.99000  0.32000  0.64100  1.0000
  B   B9        1.0  0.52100  0.85500  0.20200  1.0000
  B   B10       1.0  0.85500  0.52100  0.29800  1.0000
  B   B11       1.0  0.47900  0.14500  0.79800  1.0000
  B   B12       1.0  0.14500  0.47900  0.70200  1.0000
  B   B13       1.0  0.26900  0.57800  0.09750  1.0000
  B   B14       1.0  0.57800  0.26900  0.40300  1.0000
  B   B15       1.0  0.73100  0.42200  0.90300  1.0000
  B   B16       1.0  0.42200  0.73100  0.59700  1.0000
  B   B17       1.0  0.26000  0.44900  0.15800  1.0000
  B   B18       1.0  0.44900  0.26000  0.34200  1.0000
  B   B19       1.0  0.74000  0.55100  0.84200  1.0000
  B   B20       1.0  0.55100  0.74000  0.65800  1.0000
  B   B21       1.0  0.27000  0.61100  0.17700  1.0000
  B   B22       1.0  0.61100  0.27000  0.32300  1.0000
  B   B23       1.0  0.73000  0.38900  0.82300  1.0000
  B   B24       1.0  0.38900  0.73000  0.67700  1.0000
  B   B25       1.0  0.38800  0.21300  0.08870  1.0000
  B   B26       1.0  0.21300  0.38800  0.41100  1.0000
  B   B27       1.0  0.61200  0.78700  0.91100  1.0000
  B   B28       1.0  0.78700  0.61200  0.58900  1.0000
  B   B29       1.0  0.44200  0.63700  0.21200  1.0000
  B   B30       1.0  0.63700  0.44200  0.28800  1.0000
  B   B31       1.0  0.55800  0.36300  0.78800  1.0000
  B   B32       1.0  0.36300  0.55800  0.71200  1.0000
  B   B33       1.0  0.68500  0.86700  0.17900  1.0000
  B   B34       1.0  0.86700  0.68500  0.32100  1.0000
  B   B35       1.0  0.31500  0.13300  0.82100  1.0000
  B   B36       1.0  0.13300  0.31500  0.67900  1.0000
  B   B37       1.0  0.00888  0.81600  0.13500  1.0000
  B   B38       1.0  0.81600  0.00888  0.36500  1.0000
  B   B39       1.0  0.99100  0.18400  0.86500  1.0000
  B   B40       1.0  0.18400  0.99100  0.63500  1.0000
  B   B41       1.0  0.44300  0.13000  0.14100  1.0000
  B   B42       1.0  0.13000  0.44300  0.35900  1.0000
  B   B43       1.0  0.55700  0.87000  0.85900  1.0000
  B   B44       1.0  0.87000  0.55700  0.64100  1.0000
  B   B45       1.0  0.44500  0.11500  0.05960  1.0000
  B   B46       1.0  0.11500  0.44500  0.44000  1.0000
  B   B47       1.0  0.55500  0.88500  0.94000  1.0000
  B   B48       1.0  0.88500  0.55500  0.56000  1.0000
  B   B49       1.0  0.24400  0.04620  0.02530  1.0000
  B   B50       1.0  0.04620  0.24400  0.47500  1.0000
  B   B51       1.0  0.75600  0.95400  0.97500  1.0000
  B   B52       1.0  0.95400  0.75600  0.52500  1.0000
  B   B53       1.0  0.33800  0.91100  0.10900  1.0000
  B   B54       1.0  0.91100  0.33800  0.39100  1.0000
  B   B55       1.0  0.66200  0.08850  0.89100  1.0000
  B   B56       1.0  0.08850  0.66200  0.60900  1.0000
  B   B57       1.0  0.21100  0.85900  0.03810  1.0000
  B   B58       1.0  0.85900  0.21100  0.46200  1.0000
  B   B59       1.0  0.78900  0.14100  0.96200  1.0000
  B   B60       1.0  0.14100  0.78900  0.53800  1.0000
  B   B61       1.0  0.00976  0.80000  0.05380  1.0000
  B   B62       1.0  0.80000  0.00976  0.44600  1.0000
  B   B63       1.0  0.99000  0.20000  0.94600  1.0000
  B   B64       1.0  0.20000  0.99000  0.55400  1.0000
  B   B65       1.0  0.11800  0.01880  0.08540  1.0000
  B   B66       1.0  0.01880  0.11800  0.41500  1.0000
  B   B67       1.0  0.88200  0.98100  0.91500  1.0000
  B   B68       1.0  0.98100  0.88200  0.58500  1.0000
  B   B69       1.0  0.24300  0.07080  0.15600  1.0000
  B   B70       1.0  0.07080  0.24300  0.34400  1.0000
  B   B71       1.0  0.75700  0.92900  0.84400  1.0000
  B   B72       1.0  0.92900  0.75700  0.65600  1.0000
  C   C1        1.0  0.51500  0.62400  0.15100  1.0000
  C   C2        1.0  0.62400  0.51500  0.34900  1.0000
  C   C3        1.0  0.48500  0.37600  0.84900  1.0000
  C   C4        1.0  0.37600  0.48500  0.65100  1.0000
  C   C5        1.0  0.21200  0.89300  0.16300  1.0000
  C   C6        1.0  0.89300  0.21200  0.33700  1.0000
  C   C7        1.0  0.78800  0.10700  0.83700  1.0000
  C   C8        1.0  0.10700  0.78800  0.66300  1.0000
  C   C9        1.0  0.08050  0.74000  0.10500  1.0000
  C   C10       1.0  0.74000  0.08050  0.39500  1.0000
  C   C11       1.0  0.91900  0.26000  0.89500  1.0000
  C   C12       1.0  0.26000  0.91900  0.60500  1.0000
  C   C13       1.0  0.40500  0.57500  0.09380  1.0000
  C   C14       1.0  0.57500  0.40500  0.40600  1.0000
  C   C15       1.0  0.59500  0.42500  0.90600  1.0000
  C   C16       1.0  0.42500  0.59500  0.59400  1.0000
  H   H1        1.0  0.56300  0.92400  0.08960  1.0000
  H   H2        1.0  0.92400  0.56300  0.41000  1.0000
  H   H3        1.0  0.43700  0.07560  0.91000  1.0000
  H   H4        1.0  0.07560  0.43700  0.59000  1.0000
  H   H5        1.0  0.83100  0.94400  0.20700  1.0000
  H   H6        1.0  0.94400  0.83100  0.29300  1.0000
  H   H7        1.0  0.16900  0.05580  0.79300  1.0000
  H   H8        1.0  0.05580  0.16900  0.70700  1.0000
  H   H9        1.0  0.75700  0.96700  0.12500  1.0000
  H   H10       1.0  0.96700  0.75700  0.37500  1.0000
  H   H11       1.0  0.24300  0.03280  0.87500  1.0000
  H   H12       1.0  0.03280  0.24300  0.62500  1.0000
  H   H13       1.0  0.13700  0.50000  0.06050  1.0000
  H   H14       1.0  0.50000  0.13700  0.44000  1.0000
  H   H15       1.0  0.86300  0.50000  0.94000  1.0000
  H   H16       1.0  0.50000  0.86300  0.56000  1.0000
  H   H17       1.0  0.81400  0.19100  0.13700  1.0000
  H   H18       1.0  0.19100  0.81400  0.36300  1.0000
  H   H19       1.0  0.18600  0.80900  0.86300  1.0000
  H   H20       1.0  0.80900  0.18600  0.63700  1.0000
  H   H21       1.0  0.24700  0.12700  0.20300  1.0000
  H   H22       1.0  0.12700  0.24700  0.29700  1.0000
  H   H23       1.0  0.75300  0.87300  0.79700  1.0000
  H   H24       1.0  0.87300  0.75300  0.70300  1.0000
  H   H25       1.0  0.50500  0.39000  0.08320  1.0000
  H   H26       1.0  0.39000  0.50500  0.41700  1.0000
  H   H27       1.0  0.49500  0.61000  0.91700  1.0000
  H   H28       1.0  0.61000  0.49500  0.58300  1.0000
  H   H29       1.0  0.45000  0.59200  0.26200  1.0000
  H   H30       1.0  0.59200  0.45000  0.23800  1.0000
  H   H31       1.0  0.55000  0.40800  0.73800  1.0000
  H   H32       1.0  0.40800  0.55000  0.76200  1.0000
  H   H33       1.0  0.13900  0.27500  0.17000  1.0000
  H   H34       1.0  0.27500  0.13900  0.33000  1.0000
  H   H35       1.0  0.86100  0.72500  0.83000  1.0000
  H   H36       1.0  0.72500  0.86100  0.67000  1.0000
  H   H37       1.0  0.12700  0.54100  0.20100  1.0000
  H   H38       1.0  0.54100  0.12700  0.29900  1.0000
  H   H39       1.0  0.87300  0.45900  0.79900  1.0000
  H   H40       1.0  0.45900  0.87300  0.70100  1.0000
  H   H41       1.0  0.54000  0.92800  0.24700  1.0000
  H   H42       1.0  0.92800  0.54000  0.25300  1.0000
  H   H43       1.0  0.46000  0.07200  0.75300  1.0000
  H   H44       1.0  0.07200  0.46000  0.74700  1.0000
  H   H45       1.0  0.57100  0.57500  0.15700  1.0000
  H   H46       1.0  0.57500  0.57100  0.34300  1.0000
  H   H47       1.0  0.42900  0.42500  0.84300  1.0000
  H   H48       1.0  0.42500  0.42900  0.65700  1.0000
  H   H49       1.0  0.39900  0.50700  0.05700  1.0000
  H   H50       1.0  0.50700  0.39900  0.44300  1.0000
  H   H51       1.0  0.60100  0.49300  0.94300  1.0000
  H   H52       1.0  0.49300  0.60100  0.55700  1.0000
  H   H53       1.0  0.25400  0.10100  0.97400  1.0000
  H   H54       1.0  0.10100  0.25400  0.52600  1.0000
  H   H55       1.0  0.74600  0.89900  0.02590  1.0000
  H   H56       1.0  0.89900  0.74600  0.47400  1.0000
  H   H57       1.0  0.03970  0.05370  0.07810  1.0000
  H   H58       1.0  0.05370  0.03970  0.42200  1.0000
  H   H59       1.0  0.96000  0.94600  0.92200  1.0000
  H   H60       1.0  0.94600  0.96000  0.57800  1.0000
  H   H61       1.0  0.18900  0.82500  0.20700  1.0000
  H   H62       1.0  0.82500  0.18900  0.29300  1.0000
  H   H63       1.0  0.81100  0.17500  0.79300  1.0000
  H   H64       1.0  0.17500  0.81100  0.70700  1.0000
  H   H65       1.0  0.18400  0.76500  0.00047  1.0000
  H   H66       1.0  0.76500  0.18400  0.50000  1.0000
  H   H67       1.0  0.81600  0.23500  1.00000  1.0000
  H   H68       1.0  0.23500  0.81600  0.50000  1.0000
  H   H69       1.0  0.98000  0.58200  0.11500  1.0000
  H   H70       1.0  0.58200  0.98000  0.38500  1.0000
  H   H71       1.0  0.01990  0.41800  0.88500  1.0000
  H   H72       1.0  0.41800  0.01990  0.61500  1.0000
  H   H73       1.0  0.58400  0.22800  0.17600  1.0000
  H   H74       1.0  0.22800  0.58400  0.32400  1.0000
  H   H75       1.0  0.41600  0.77200  0.82400  1.0000
  H   H76       1.0  0.77200  0.41600  0.67600  1.0000
  H   H77       1.0  0.59900  0.21900  0.03350  1.0000
  H   H78       1.0  0.21900  0.59900  0.46600  1.0000
  H   H79       1.0  0.40100  0.78100  0.96600  1.0000
  H   H80       1.0  0.78100  0.40100  0.53400  1.0000
  H   H81       1.0  0.85000  0.66600  0.02720  1.0000
  H   H82       1.0  0.66600  0.85000  0.47300  1.0000
  H   H83       1.0  0.15000  0.33400  0.97300  1.0000
  H   H84       1.0  0.33400  0.15000  0.52700  1.0000
  H   H85       1.0  0.86100  0.69600  0.16500  1.0000
  H   H86       1.0  0.69600  0.86100  0.33500  1.0000
  H   H87       1.0  0.13900  0.30400  0.83500  1.0000
  H   H88       1.0  0.30400  0.13900  0.66500  1.0000
