# generated using pymatgen
data_Ir(Br3N)2
_symmetry_space_group_name_H-M   'P 1'
_cell_length_a   7.27611746
_cell_length_b   7.27611746
_cell_length_c   7.27611746
_cell_angle_alpha   60.00000000
_cell_angle_beta   60.00000000
_cell_angle_gamma   60.00000000
_symmetry_Int_Tables_number   1
_chemical_formula_structural   Ir(Br3N)2
_chemical_formula_sum   'Ir1 Br6 N2'
_cell_volume   272.38557664
_cell_formula_units_Z   1
loop_
 _symmetry_equiv_pos_site_id
 _symmetry_equiv_pos_as_xyz
  1  'x, y, z'
loop_
 _atom_site_type_symbol
 _atom_site_label
 _atom_site_symmetry_multiplicity
 _atom_site_fract_x
 _atom_site_fract_y
 _atom_site_fract_z
 _atom_site_occupancy
  Ir  Ir0  1  0.00000000  0.00000000  0.00000000  1
  Br  Br1  1  0.76071700  0.23928300  0.23928300  1
  Br  Br2  1  0.23928300  0.76071700  0.76071700  1
  Br  Br3  1  0.23928300  0.76071700  0.23928300  1
  Br  Br4  1  0.76071700  0.23928300  0.76071700  1
  Br  Br5  1  0.23928300  0.23928300  0.76071700  1
  Br  Br6  1  0.76071700  0.76071700  0.23928300  1
  N  N7  1  0.25000000  0.25000000  0.25000000  1
  N  N8  1  0.75000000  0.75000000  0.75000000  1
