# generated using pymatgen
data_Yb2I2O
_symmetry_space_group_name_H-M   'P 1'
_cell_length_a   6.23605600
_cell_length_b   6.23605600
_cell_length_c   14.31929400
_cell_angle_alpha   90.00000000
_cell_angle_beta   90.00000000
_cell_angle_gamma   90.00000000
_symmetry_Int_Tables_number   1
_chemical_formula_structural   Yb2I2O
_chemical_formula_sum   'Yb2 I2 O1'
_cell_volume   556.85435310
_cell_formula_units_Z   1
loop_
 _symmetry_equiv_pos_site_id
 _symmetry_equiv_pos_as_xyz
  1  'x, y, z'
loop_
 _atom_site_type_symbol
 _atom_site_label
 _atom_site_symmetry_multiplicity
 _atom_site_fract_x
 _atom_site_fract_y
 _atom_site_fract_z
 _atom_site_occupancy
  Yb  Yb0  1  0.50000000  0.50000000  0.14277400  1
  Yb  Yb1  1  0.50000000  0.50000000  0.85722600  1
  I  I2  1  0.50000000  0.50000000  0.65614200  1
  I  I3  1  0.50000000  0.50000000  0.34385800  1
  O  O4  1  0.50000000  0.50000000  0.00000000  1
