data_image0
_chemical_formula_structural       Ba2H6Mg
_chemical_formula_sum              "Ba2 H6 Mg1"
_cell_length_a       5.64355
_cell_length_b       5.64356
_cell_length_c       4.48733
_cell_angle_alpha    90
_cell_angle_beta     89.9992
_cell_angle_gamma    120

_space_group_name_H-M_alt    "P 1"
_space_group_IT_number       1

loop_
  _space_group_symop_operation_xyz
  'x, y, z'

loop_
  _atom_site_type_symbol
  _atom_site_label
  _atom_site_symmetry_multiplicity
  _atom_site_fract_x
  _atom_site_fract_y
  _atom_site_fract_z
  _atom_site_occupancy
  Ba  Ba1       1.0  0.66700  0.33300  0.26700  1.0000
  Ba  Ba2       1.0  0.33300  0.66700  0.73300  1.0000
  H   H1        1.0  0.17200  0.34400  0.22700  1.0000
  H   H2        1.0  0.17200  0.82800  0.22700  1.0000
  H   H3        1.0  0.65600  0.82800  0.22700  1.0000
  H   H4        1.0  0.34400  0.17200  0.77300  1.0000
  H   H5        1.0  0.82800  0.65600  0.77300  1.0000
  H   H6        1.0  0.82800  0.17200  0.77300  1.0000
  Mg  Mg1       1.0  0.00000  0.00000  0.00000  1.0000
