# generated using pymatgen
data_Y2TiSi2
_symmetry_space_group_name_H-M   'P 1'
_cell_length_a   9.35692400
_cell_length_b   9.35692400
_cell_length_c   32.65047700
_cell_angle_alpha   90.00000000
_cell_angle_beta   90.00000000
_cell_angle_gamma   90.00000000
_symmetry_Int_Tables_number   1
_chemical_formula_structural   Y2TiSi2
_chemical_formula_sum   'Y2 Ti1 Si2'
_cell_volume   2858.61543544
_cell_formula_units_Z   1
loop_
 _symmetry_equiv_pos_site_id
 _symmetry_equiv_pos_as_xyz
  1  'x, y, z'
loop_
 _atom_site_type_symbol
 _atom_site_label
 _atom_site_symmetry_multiplicity
 _atom_site_fract_x
 _atom_site_fract_y
 _atom_site_fract_z
 _atom_site_occupancy
  Y  Y0  1  0.50000000  0.50000000  0.65627300  1
  Y  Y1  1  0.50000000  0.50000000  0.34372700  1
  Ti  Ti2  1  0.50000000  0.50000000  0.00000000  1
  Si  Si3  1  0.50000000  0.50000000  0.26223300  1
  Si  Si4  1  0.50000000  0.50000000  0.73776700  1
