# generated using pymatgen
data_AlS2NO8
_symmetry_space_group_name_H-M   'P 1'
_cell_length_a   5.00705763
_cell_length_b   5.00705763
_cell_length_c   8.36299100
_cell_angle_alpha   90.00000000
_cell_angle_beta   90.00000000
_cell_angle_gamma   119.99999512
_symmetry_Int_Tables_number   1
_chemical_formula_structural   AlS2NO8
_chemical_formula_sum   'Al1 S2 N1 O8'
_cell_volume   181.57558946
_cell_formula_units_Z   1
loop_
 _symmetry_equiv_pos_site_id
 _symmetry_equiv_pos_as_xyz
  1  'x, y, z'
loop_
 _atom_site_type_symbol
 _atom_site_label
 _atom_site_symmetry_multiplicity
 _atom_site_fract_x
 _atom_site_fract_y
 _atom_site_fract_z
 _atom_site_occupancy
  Al  Al0  1  0.00000000  0.00000000  0.00000000  1
  S  S1  1  0.33333300  0.66666700  0.19670500  1
  S  S2  1  0.66666700  0.33333300  0.80329500  1
  N  N3  1  0.00000000  0.00000000  0.50000000  1
  O  O4  1  0.15540100  0.34664800  0.13472000  1
  O  O5  1  0.65335200  0.80875300  0.13472000  1
  O  O6  1  0.34664800  0.15540100  0.86528000  1
  O  O7  1  0.19124700  0.84459900  0.13472000  1
  O  O8  1  0.80875300  0.65335200  0.86528000  1
  O  O9  1  0.84459900  0.19124700  0.86528000  1
  O  O10  1  0.33333300  0.66666700  0.37011200  1
  O  O11  1  0.66666700  0.33333300  0.62988800  1
