data_image0
_chemical_formula_structural       O6PbSb2
_chemical_formula_sum              "O6 Pb1 Sb2"
_cell_length_a       5.3395
_cell_length_b       5.33936
_cell_length_c       5.31277
_cell_angle_alpha    89.9987
_cell_angle_beta     90.0026
_cell_angle_gamma    120.001

_space_group_name_H-M_alt    "P 1"
_space_group_IT_number       1

loop_
  _space_group_symop_operation_xyz
  'x, y, z'

loop_
  _atom_site_type_symbol
  _atom_site_label
  _atom_site_symmetry_multiplicity
  _atom_site_fract_x
  _atom_site_fract_y
  _atom_site_fract_z
  _atom_site_occupancy
  O   O1        1.0  0.37900  0.00000  0.28900  1.0000
  O   O2        1.0  0.62100  0.62100  0.28900  1.0000
  O   O3        1.0  0.00000  0.37900  0.28900  1.0000
  O   O4        1.0  0.37900  0.37900  0.71100  1.0000
  O   O5        1.0  0.00001  0.62100  0.71100  1.0000
  O   O6        1.0  0.62100  0.00000  0.71100  1.0000
  Pb  Pb1       1.0  0.00000  0.00000  0.00000  1.0000
  Sb  Sb1       1.0  0.33300  0.66700  0.50000  1.0000
  Sb  Sb2       1.0  0.66700  0.33300  0.50000  1.0000
