# generated using pymatgen
data_TbCuSe2
_symmetry_space_group_name_H-M   'P 1'
_cell_length_a   4.10271500
_cell_length_b   4.10271526
_cell_length_c   6.43992600
_cell_angle_alpha   90.00000000
_cell_angle_beta   90.00000000
_cell_angle_gamma   119.99998986
_symmetry_Int_Tables_number   1
_chemical_formula_structural   TbCuSe2
_chemical_formula_sum   'Tb1 Cu1 Se2'
_cell_volume   93.87593568
_cell_formula_units_Z   1
loop_
 _symmetry_equiv_pos_site_id
 _symmetry_equiv_pos_as_xyz
  1  'x, y, z'
loop_
 _atom_site_type_symbol
 _atom_site_label
 _atom_site_symmetry_multiplicity
 _atom_site_fract_x
 _atom_site_fract_y
 _atom_site_fract_z
 _atom_site_occupancy
  Tb  Tb0  1  0.00000000  0.00000000  0.80268900  1
  Cu  Cu1  1  0.66666700  0.33333300  0.18615600  1
  Se  Se2  1  0.33333300  0.66666700  0.07318400  1
  Se  Se3  1  0.66666700  0.33333300  0.56397200  1
