# generated using pymatgen
data_CrPbN2
_symmetry_space_group_name_H-M   'P 1'
_cell_length_a   3.61766500
_cell_length_b   3.61766500
_cell_length_c   9.79036200
_cell_angle_alpha   90.00000000
_cell_angle_beta   90.00000000
_cell_angle_gamma   90.00000000
_symmetry_Int_Tables_number   1
_chemical_formula_structural   CrPbN2
_chemical_formula_sum   'Cr2 Pb2 N4'
_cell_volume   128.13136319
_cell_formula_units_Z   2
loop_
 _symmetry_equiv_pos_site_id
 _symmetry_equiv_pos_as_xyz
  1  'x, y, z'
loop_
 _atom_site_type_symbol
 _atom_site_label
 _atom_site_symmetry_multiplicity
 _atom_site_fract_x
 _atom_site_fract_y
 _atom_site_fract_z
 _atom_site_occupancy
  Cr  Cr0  1  0.75000000  0.75000000  0.57031400  1
  Cr  Cr1  1  0.25000000  0.25000000  0.42968600  1
  Pb  Pb2  1  0.75000000  0.75000000  0.13116800  1
  Pb  Pb3  1  0.25000000  0.25000000  0.86883200  1
  N  N4  1  0.75000000  0.25000000  0.50000000  1
  N  N5  1  0.25000000  0.75000000  0.50000000  1
  N  N6  1  0.75000000  0.75000000  0.73873100  1
  N  N7  1  0.25000000  0.25000000  0.26126900  1
