# generated using pymatgen
data_SrEu(GeO3)4
_symmetry_space_group_name_H-M   'P 1'
_cell_length_a   5.37322438
_cell_length_b   5.37322438
_cell_length_c   7.63446709
_cell_angle_alpha   90.00000000
_cell_angle_beta   90.00000000
_cell_angle_gamma   90.00000000
_symmetry_Int_Tables_number   1
_chemical_formula_structural   SrEu(GeO3)4
_chemical_formula_sum   'Sr1 Eu1 Ge4 O12'
_cell_volume   220.41882378
_cell_formula_units_Z   1
loop_
 _symmetry_equiv_pos_site_id
 _symmetry_equiv_pos_as_xyz
  1  'x, y, z'
loop_
 _atom_site_type_symbol
 _atom_site_label
 _atom_site_symmetry_multiplicity
 _atom_site_fract_x
 _atom_site_fract_y
 _atom_site_fract_z
 _atom_site_occupancy
  Sr  Sr0  1  0.00000000  0.00000000  0.00000000  1
  Eu  Eu1  1  0.50000000  0.50000000  0.50000000  1
  Ge  Ge2  1  0.00000000  0.50000000  0.75418184  1
  Ge  Ge3  1  0.00000000  0.50000000  0.24581816  1
  Ge  Ge4  1  0.50000000  0.00000000  0.75418184  1
  Ge  Ge5  1  0.50000000  0.00000000  0.24581816  1
  O  O6  1  0.25543654  0.25543654  0.74306188  1
  O  O7  1  0.25543654  0.25543654  0.25693812  1
  O  O8  1  0.74456346  0.74456346  0.25693812  1
  O  O9  1  0.74456346  0.74456346  0.74306188  1
  O  O10  1  0.74456346  0.25543654  0.74306188  1
  O  O11  1  0.74456346  0.25543654  0.25693812  1
  O  O12  1  0.25543654  0.74456346  0.25693812  1
  O  O13  1  0.25543654  0.74456346  0.74306188  1
  O  O14  1  0.00000000  0.50000000  0.50000000  1
  O  O15  1  0.00000000  0.50000000  0.00000000  1
  O  O16  1  0.50000000  0.00000000  0.50000000  1
  O  O17  1  0.50000000  0.00000000  0.00000000  1
