CIF file written using JARVIS-Tools package.
data_LiO
_symmetry_space_group_name_H-M  'P6_3/mmc'
_cell_length_a       3.12696
_cell_length_b       3.12696
_cell_length_c       7.63863
_cell_angle_alpha    90
_cell_angle_beta     90
_cell_angle_gamma    120

_symmetry_Int_Tables_number  194
_chemical_formula_structural  LiO
_chemical_formula_sum  Li4O4
_cell_volume  64.68315341452825
_cell_formula_units_Z  4
loop_
  _symmetry_equiv_pos_site_id
 _symmetry_equiv_pos_as_xyz
 1  'x, y, z'
loop_
 _atom_site_type_symbol
 _atom_site_label
 _atom_site_symmetry_multiplicity
 _atom_site_fract_x
 _atom_site_fract_y
 _atom_site_fract_z
 _atom_site_fract_occupancy
 Li  Li1  1  0.00000  0.00000  0.00000  1
 Li  Li2  1  0.00000  0.00000  0.50000  1
 Li  Li3  1  0.33333  0.66667  0.25000  1
 Li  Li4  1  0.66667  0.33333  0.75000  1
 O  O1  1  0.33333  0.66667  0.64826  1
 O  O2  1  0.66667  0.33333  0.14826  1
 O  O3  1  0.66667  0.33333  0.35174  1
 O  O4  1  0.33333  0.66667  0.85174  1
