CIF file written using JARVIS-Tools package.
data_NdMgSi2
_symmetry_space_group_name_H-M  'I4_1/amd'
_cell_length_a       4.27357
_cell_length_b       4.27357
_cell_length_c       18.6767
_cell_angle_alpha    96.5695
_cell_angle_beta     96.5695
_cell_angle_gamma    90

_symmetry_Int_Tables_number  141
_chemical_formula_structural  NdMgSi2
_chemical_formula_sum  Nd4Mg4Si8
_cell_volume  336.60608822212686
_cell_formula_units_Z  4
loop_
  _symmetry_equiv_pos_site_id
 _symmetry_equiv_pos_as_xyz
 1  'x, y, z'
loop_
 _atom_site_type_symbol
 _atom_site_label
 _atom_site_symmetry_multiplicity
 _atom_site_fract_x
 _atom_site_fract_y
 _atom_site_fract_z
 _atom_site_fract_occupancy
 Mg  Mg1  1  0.62498  0.37498  0.74995  1
 Mg  Mg2  1  0.87498  0.12498  0.24995  1
 Mg  Mg3  1  0.37502  0.62502  0.25005  1
 Mg  Mg4  1  0.12502  0.87502  0.75005  1
 Nd  Nd1  1  0.70255  0.95255  0.90509  1
 Nd  Nd2  1  0.54745  0.79745  0.59491  1
 Nd  Nd3  1  0.45255  0.20255  0.40509  1
 Nd  Nd4  1  0.29745  0.04745  0.09491  1
 Si  Si1  1  0.07745  0.32745  0.65490  1
 Si  Si2  1  0.76429  0.51429  0.02858  1
 Si  Si3  1  0.17255  0.42255  0.84510  1
 Si  Si4  1  0.92255  0.67255  0.34510  1
 Si  Si5  1  0.98571  0.73571  0.47142  1
 Si  Si6  1  0.82745  0.57745  0.15490  1
 Si  Si7  1  0.01429  0.26429  0.52858  1
 Si  Si8  1  0.23571  0.48571  0.97142  1
