CIF file written using JARVIS-Tools package.
data_BaSb2Au2
_symmetry_space_group_name_H-M  'P2_1/m'
_cell_length_a       4.9023
_cell_length_b       5.01793
_cell_length_c       11.1078
_cell_angle_alpha    91.0023
_cell_angle_beta     90
_cell_angle_gamma    90

_symmetry_Int_Tables_number  11
_chemical_formula_structural  BaSb2Au2
_chemical_formula_sum  Ba2Sb4Au4
_cell_volume  273.2031228742969
_cell_formula_units_Z  2
loop_
  _symmetry_equiv_pos_site_id
 _symmetry_equiv_pos_as_xyz
 1  'x, y, z'
loop_
 _atom_site_type_symbol
 _atom_site_label
 _atom_site_symmetry_multiplicity
 _atom_site_fract_x
 _atom_site_fract_y
 _atom_site_fract_z
 _atom_site_fract_occupancy
 Au  Au1  1  0.75000  0.30416  0.00055  1
 Au  Au2  1  0.75000  0.74657  0.63151  1
 Au  Au3  1  0.25000  0.25343  0.36849  1
 Au  Au4  1  0.25000  0.69584  0.99945  1
 Ba  Ba1  1  0.25000  0.26139  0.75654  1
 Ba  Ba2  1  0.75000  0.73861  0.24346  1
 Sb  Sb1  1  0.75000  0.24682  0.50117  1
 Sb  Sb2  1  0.25000  0.75318  0.49883  1
 Sb  Sb3  1  0.25000  0.19811  0.12306  1
 Sb  Sb4  1  0.75000  0.80189  0.87694  1
