CIF file written using JARVIS-Tools package.
data_SmOs2
_symmetry_space_group_name_H-M  'P6_3/mmc'
_cell_length_a       5.35482
_cell_length_b       5.35482
_cell_length_c       9.04808
_cell_angle_alpha    90
_cell_angle_beta     90
_cell_angle_gamma    120

_symmetry_Int_Tables_number  194
_chemical_formula_structural  SmOs2
_chemical_formula_sum  Sm4Os8
_cell_volume  224.68676006955687
_cell_formula_units_Z  4
loop_
  _symmetry_equiv_pos_site_id
 _symmetry_equiv_pos_as_xyz
 1  'x, y, z'
loop_
 _atom_site_type_symbol
 _atom_site_label
 _atom_site_symmetry_multiplicity
 _atom_site_fract_x
 _atom_site_fract_y
 _atom_site_fract_z
 _atom_site_fract_occupancy
 Os  Os1  1  0.17051  0.34103  0.75000  1
 Os  Os2  1  0.17051  0.82949  0.75000  1
 Os  Os3  1  0.34103  0.17051  0.25000  1
 Os  Os4  1  0.82949  0.65897  0.25000  1
 Os  Os5  1  0.65897  0.82949  0.75000  1
 Os  Os6  1  0.00000  0.00000  0.00000  1
 Os  Os7  1  0.82949  0.17051  0.25000  1
 Os  Os8  1  0.00000  0.00000  0.50000  1
 Sm  Sm1  1  0.33333  0.66667  0.43477  1
 Sm  Sm2  1  0.66667  0.33333  0.56523  1
 Sm  Sm3  1  0.66667  0.33333  0.93477  1
 Sm  Sm4  1  0.33333  0.66667  0.06523  1
