CIF file written using JARVIS-Tools package.
data_Mo3WSe4S4
_symmetry_space_group_name_H-M  'P3m1'
_cell_length_a       3.25783
_cell_length_b       3.25783
_cell_length_c       34.2657
_cell_angle_alpha    90.0006
_cell_angle_beta     90.001
_cell_angle_gamma    120

_symmetry_Int_Tables_number  156
_chemical_formula_structural  Mo3WSe4S4
_chemical_formula_sum  Mo3WSe4S4
_cell_volume  314.9539758883824
_cell_formula_units_Z  1
loop_
  _symmetry_equiv_pos_site_id
 _symmetry_equiv_pos_as_xyz
 1  'x, y, z'
loop_
 _atom_site_type_symbol
 _atom_site_label
 _atom_site_symmetry_multiplicity
 _atom_site_fract_x
 _atom_site_fract_y
 _atom_site_fract_z
 _atom_site_fract_occupancy
 Mo  Mo1  1  0.33332  0.66663  0.09475  1
 Mo  Mo2  1  0.33333  0.66665  0.46945  1
 Mo  Mo3  1  0.66668  0.33337  0.65662  1
 S  S1  1  0.66662  0.33326  0.04967  1
 S  S2  1  0.66665  0.33331  0.42433  1
 S  S3  1  0.66668  0.33334  0.13988  1
 S  S4  1  0.66667  0.33332  0.51458  1
 Se  Se1  1  0.33335  0.66669  0.33195  1
 Se  Se2  1  0.33335  0.66669  0.70613  1
 Se  Se3  1  0.33333  0.66667  0.23223  1
 Se  Se4  1  0.33335  0.66671  0.60706  1
 W  W1  1  0.66667  0.33335  0.28209  1
