CIF file written using JARVIS-Tools package.
data_YbCo2Si2
_symmetry_space_group_name_H-M  'I4/mmm'
_cell_length_a       3.89648
_cell_length_b       3.89649
_cell_length_c       5.60892
_cell_angle_alpha    110.325
_cell_angle_beta     110.325
_cell_angle_gamma    90.0001

_symmetry_Int_Tables_number  139
_chemical_formula_structural  YbCo2Si2
_chemical_formula_sum  YbCo2Si2
_cell_volume  74.17562202635547
_cell_formula_units_Z  1
loop_
  _symmetry_equiv_pos_site_id
 _symmetry_equiv_pos_as_xyz
 1  'x, y, z'
loop_
 _atom_site_type_symbol
 _atom_site_label
 _atom_site_symmetry_multiplicity
 _atom_site_fract_x
 _atom_site_fract_y
 _atom_site_fract_z
 _atom_site_fract_occupancy
 Co  Co1  1  0.25000  0.75000  0.50000  1
 Co  Co2  1  0.75000  0.25000  0.50000  1
 Si  Si1  1  0.63088  0.63088  0.26177  1
 Si  Si2  1  0.36912  0.36912  0.73823  1
 Yb  Yb1  1  0.00000  0.00000  0.00000  1
