CIF file written using JARVIS-Tools package.
data_Bi2MoO6
_symmetry_space_group_name_H-M  'Cmce'
_cell_length_a       5.44071
_cell_length_b       5.4029
_cell_length_c       8.73667
_cell_angle_alpha    108.011
_cell_angle_beta     90
_cell_angle_gamma    90

_symmetry_Int_Tables_number  64
_chemical_formula_structural  Bi2MoO6
_chemical_formula_sum  Bi4Mo2O2
_cell_volume  244.23416341370805
_cell_formula_units_Z  2
loop_
  _symmetry_equiv_pos_site_id
 _symmetry_equiv_pos_as_xyz
 1  'x, y, z'
loop_
 _atom_site_type_symbol
 _atom_site_label
 _atom_site_symmetry_multiplicity
 _atom_site_fract_x
 _atom_site_fract_y
 _atom_site_fract_z
 _atom_site_fract_occupancy
 Bi  Bi1  1  0.51899  0.17177  0.34354  1
 Bi  Bi2  1  0.48101  0.82823  0.65646  1
 Bi  Bi3  1  0.01899  0.32823  0.65646  1
 Bi  Bi4  1  0.98101  0.67177  0.34354  1
 Mo  Mo1  1  0.00000  0.00000  0.00000  1
 Mo  Mo2  1  0.50000  0.50000  -0.00000  1
 O  O1  1  0.07387  0.88920  0.77839  1
 O  O2  1  0.57387  0.61080  0.22161  1
 O  O3  1  0.75000  0.00183  0.50365  1
 O  O4  1  0.25000  0.26867  0.03735  1
 O  O5  1  0.25000  0.49817  0.49635  1
 O  O6  1  0.75000  0.73133  0.96265  1
 O  O7  1  0.42613  0.38920  0.77839  1
 O  O8  1  0.75000  0.50183  0.50365  1
 O  O9  1  0.25000  0.76867  0.03735  1
 O  O10  1  0.92613  0.11080  0.22161  1
 O  O11  1  0.75000  0.23133  0.96265  1
 O  O12  1  0.25000  0.99817  0.49635  1
