CIF file written using JARVIS-Tools package.
data_Zr2PbC
_symmetry_space_group_name_H-M  'P6_3/mmc'
_cell_length_a       3.41406
_cell_length_b       3.41406
_cell_length_c       14.8911
_cell_angle_alpha    90
_cell_angle_beta     90
_cell_angle_gamma    120

_symmetry_Int_Tables_number  194
_chemical_formula_structural  Zr2PbC
_chemical_formula_sum  Zr4Pb2C2
_cell_volume  150.31431493872165
_cell_formula_units_Z  2
loop_
  _symmetry_equiv_pos_site_id
 _symmetry_equiv_pos_as_xyz
 1  'x, y, z'
loop_
 _atom_site_type_symbol
 _atom_site_label
 _atom_site_symmetry_multiplicity
 _atom_site_fract_x
 _atom_site_fract_y
 _atom_site_fract_z
 _atom_site_fract_occupancy
 C  C1  1  0.00000  0.00000  0.50000  1
 C  C2  1  0.00000  0.00000  0.00000  1
 Pb  Pb1  1  0.66667  0.33333  0.25000  1
 Pb  Pb2  1  0.33333  0.66667  0.75000  1
 Zr  Zr1  1  0.66668  0.33332  0.58247  1
 Zr  Zr2  1  0.33332  0.66668  0.41753  1
 Zr  Zr3  1  0.33332  0.66668  0.08247  1
 Zr  Zr4  1  0.66668  0.33332  0.91753  1
