CIF file written using JARVIS-Tools package.
data_CaTe
_symmetry_space_group_name_H-M  'P6_3/mmc'
_cell_length_a       4.43368
_cell_length_b       7.60944
_cell_length_c       7.67951
_cell_angle_alpha    90
_cell_angle_beta     90
_cell_angle_gamma    90

_symmetry_Int_Tables_number  194
_chemical_formula_structural  CaTe
_chemical_formula_sum  Ca4Te4
_cell_volume  259.0895323584846
_cell_formula_units_Z  4
loop_
  _symmetry_equiv_pos_site_id
 _symmetry_equiv_pos_as_xyz
 1  'x, y, z'
loop_
 _atom_site_type_symbol
 _atom_site_label
 _atom_site_symmetry_multiplicity
 _atom_site_fract_x
 _atom_site_fract_y
 _atom_site_fract_z
 _atom_site_fract_occupancy
 Ca  Ca1  1  0.25000  0.49999  0.75001  1
 Ca  Ca2  1  0.75000  0.50001  0.24999  1
 Ca  Ca3  1  0.25000  -0.00001  0.74999  1
 Ca  Ca4  1  0.75000  0.00001  0.25001  1
 Te  Te1  1  0.25000  0.75000  0.08332  1
 Te  Te2  1  0.75000  0.25000  0.91668  1
 Te  Te3  1  0.25000  0.25000  0.41668  1
 Te  Te4  1  0.75000  0.75000  0.58332  1
