CIF file written using JARVIS-Tools package.
data_Rb3In
_symmetry_space_group_name_H-M  'Fm-3m'
_cell_length_a       6.66845
_cell_length_b       6.66845
_cell_length_c       6.66845
_cell_angle_alpha    120.05
_cell_angle_beta     120.05
_cell_angle_gamma    89.9129

_symmetry_Int_Tables_number  225
_chemical_formula_structural  Rb3In
_chemical_formula_sum  Rb3In
_cell_volume  209.5214743977056
_cell_formula_units_Z  1
loop_
  _symmetry_equiv_pos_site_id
 _symmetry_equiv_pos_as_xyz
 1  'x, y, z'
loop_
 _atom_site_type_symbol
 _atom_site_label
 _atom_site_symmetry_multiplicity
 _atom_site_fract_x
 _atom_site_fract_y
 _atom_site_fract_z
 _atom_site_fract_occupancy
 In  In1  1  0.00000  0.00000  0.00000  1
 Rb  Rb1  1  0.75000  0.25000  0.50000  1
 Rb  Rb2  1  0.25000  0.75000  0.50000  1
 Rb  Rb3  1  0.50000  0.50000  0.00000  1
