CIF file written using JARVIS-Tools package.
data_YB2Rh3
_symmetry_space_group_name_H-M  'P6/mmm'
_cell_length_a       5.40459
_cell_length_b       5.40459
_cell_length_c       3.15515
_cell_angle_alpha    89.9999
_cell_angle_beta     89.9999
_cell_angle_gamma    119.999

_symmetry_Int_Tables_number  191
_chemical_formula_structural  YB2Rh3
_chemical_formula_sum  YB2Rh3
_cell_volume  79.81363288170691
_cell_formula_units_Z  1
loop_
  _symmetry_equiv_pos_site_id
 _symmetry_equiv_pos_as_xyz
 1  'x, y, z'
loop_
 _atom_site_type_symbol
 _atom_site_label
 _atom_site_symmetry_multiplicity
 _atom_site_fract_x
 _atom_site_fract_y
 _atom_site_fract_z
 _atom_site_fract_occupancy
 B  B1  1  0.16668  0.83332  0.50000  1
 B  B2  1  0.83332  0.16668  0.50000  1
 Rh  Rh1  1  0.00000  0.00000  0.00000  1
 Rh  Rh2  1  0.50000  -0.00000  -0.00000  1
 Rh  Rh3  1  0.00000  0.50000  -0.00000  1
 Y  Y1  1  0.50000  0.50000  0.50000  1
