CIF file written using JARVIS-Tools package.
data_HoSiRu2C
_symmetry_space_group_name_H-M  'Cmcm'
_cell_length_a       3.78412
_cell_length_b       5.89606
_cell_length_c       7.13376
_cell_angle_alpha    90
_cell_angle_beta     90
_cell_angle_gamma    108.718

_symmetry_Int_Tables_number  63
_chemical_formula_structural  HoSiRu2C
_chemical_formula_sum  Ho2Si2Ru4C2
_cell_volume  150.7462679559781
_cell_formula_units_Z  2
loop_
  _symmetry_equiv_pos_site_id
 _symmetry_equiv_pos_as_xyz
 1  'x, y, z'
loop_
 _atom_site_type_symbol
 _atom_site_label
 _atom_site_symmetry_multiplicity
 _atom_site_fract_x
 _atom_site_fract_y
 _atom_site_fract_z
 _atom_site_fract_occupancy
 C  C1  1  0.50000  0.00000  0.50000  1
 C  C2  1  0.50000  0.00000  0.00000  1
 Ho  Ho1  1  0.95322  0.90644  0.25000  1
 Ho  Ho2  1  0.04678  0.09356  0.75000  1
 Ru  Ru1  1  0.66351  0.32702  0.44413  1
 Ru  Ru2  1  0.33649  0.67298  0.94413  1
 Ru  Ru3  1  0.33649  0.67298  0.55587  1
 Ru  Ru4  1  0.66351  0.32702  0.05587  1
 Si  Si1  1  0.23126  0.46251  0.25000  1
 Si  Si2  1  0.76874  0.53749  0.75000  1
