CIF file written using JARVIS-Tools package.
data_ThSnRh
_symmetry_space_group_name_H-M  'P-62m'
_cell_length_a       4.12302
_cell_length_b       7.59292
_cell_length_c       7.59291
_cell_angle_alpha    120
_cell_angle_beta     90
_cell_angle_gamma    90

_symmetry_Int_Tables_number  189
_chemical_formula_structural  ThSnRh
_chemical_formula_sum  Th3Sn3Rh3
_cell_volume  205.85527029070695
_cell_formula_units_Z  3
loop_
  _symmetry_equiv_pos_site_id
 _symmetry_equiv_pos_as_xyz
 1  'x, y, z'
loop_
 _atom_site_type_symbol
 _atom_site_label
 _atom_site_symmetry_multiplicity
 _atom_site_fract_x
 _atom_site_fract_y
 _atom_site_fract_z
 _atom_site_fract_occupancy
 Rh  Rh1  1  0.00000  0.33332  0.66667  1
 Rh  Rh2  1  0.00000  0.66665  0.33333  1
 Rh  Rh3  1  0.50000  0.99999  -0.00000  1
 Sn  Sn1  1  0.00000  0.25142  0.00000  1
 Sn  Sn2  1  0.00000  0.74856  0.74857  1
 Sn  Sn3  1  0.00000  0.99999  0.25143  1
 Th  Th1  1  0.50000  0.58867  -0.00000  1
 Th  Th2  1  0.50000  0.41131  0.41132  1
 Th  Th3  1  0.50000  -0.00001  0.58868  1
