CIF file written using JARVIS-Tools package.
data_Cu2GeSe3
_symmetry_space_group_name_H-M  'Imm2'
_cell_length_a       4.05188
_cell_length_b       5.57194
_cell_length_c       6.85269
_cell_angle_alpha    113.988
_cell_angle_beta     107.196
_cell_angle_gamma    90

_symmetry_Int_Tables_number  44
_chemical_formula_structural  Cu2GeSe3
_chemical_formula_sum  Cu2GeSe3
_cell_volume  133.74438573188561
_cell_formula_units_Z  1
loop_
  _symmetry_equiv_pos_site_id
 _symmetry_equiv_pos_as_xyz
 1  'x, y, z'
loop_
 _atom_site_type_symbol
 _atom_site_label
 _atom_site_symmetry_multiplicity
 _atom_site_fract_x
 _atom_site_fract_y
 _atom_site_fract_z
 _atom_site_fract_occupancy
 Cu  Cu1  1  0.83236  0.56955  0.66472  1
 Cu  Cu2  1  0.16764  0.90483  0.33528  1
 Ge  Ge1  1  0.50000  0.26501  -0.00000  1
 Se  Se1  1  0.67072  0.67429  0.34144  1
 Se  Se2  1  0.32928  0.33285  0.65856  1
 Se  Se3  1  -0.00000  0.99146  0.00000  1
