CIF file written using JARVIS-Tools package.
data_EuFe2As2
_symmetry_space_group_name_H-M  'I4/mmm'
_cell_length_a       3.98449
_cell_length_b       3.98449
_cell_length_c       5.8339
_cell_angle_alpha    109.968
_cell_angle_beta     109.968
_cell_angle_gamma    90

_symmetry_Int_Tables_number  139
_chemical_formula_structural  EuFe2As2
_chemical_formula_sum  EuFe2As2
_cell_volume  81.10269530825633
_cell_formula_units_Z  1
loop_
  _symmetry_equiv_pos_site_id
 _symmetry_equiv_pos_as_xyz
 1  'x, y, z'
loop_
 _atom_site_type_symbol
 _atom_site_label
 _atom_site_symmetry_multiplicity
 _atom_site_fract_x
 _atom_site_fract_y
 _atom_site_fract_z
 _atom_site_fract_occupancy
 As  As1  1  0.63518  0.63518  0.27037  1
 As  As2  1  0.36482  0.36482  0.72963  1
 Eu  Eu1  1  0.00000  0.00000  0.00000  1
 Fe  Fe1  1  0.75000  0.25000  0.50000  1
 Fe  Fe2  1  0.25000  0.75000  0.50000  1
