CIF file written using JARVIS-Tools package.
data_AlH3
_symmetry_space_group_name_H-M  'Fd-3m'
_cell_length_a       6.41487
_cell_length_b       6.41487
_cell_length_c       6.41487
_cell_angle_alpha    60
_cell_angle_beta     60
_cell_angle_gamma    60

_symmetry_Int_Tables_number  227
_chemical_formula_structural  AlH3
_chemical_formula_sum  Al4H2
_cell_volume  186.65857922442223
_cell_formula_units_Z  4
loop_
  _symmetry_equiv_pos_site_id
 _symmetry_equiv_pos_as_xyz
 1  'x, y, z'
loop_
 _atom_site_type_symbol
 _atom_site_label
 _atom_site_symmetry_multiplicity
 _atom_site_fract_x
 _atom_site_fract_y
 _atom_site_fract_z
 _atom_site_fract_occupancy
 Al  Al1  1  0.50000  0.50000  0.50000  1
 Al  Al2  1  -0.00000  0.50000  0.50000  1
 Al  Al3  1  0.50000  -0.00000  0.50000  1
 Al  Al4  1  0.50000  0.50000  0.00000  1
 H  H1  1  0.56941  0.56941  0.18059  1
 H  H2  1  0.18059  0.18059  0.56941  1
 H  H3  1  0.56941  0.18059  0.56941  1
 H  H4  1  0.18059  0.56941  0.18059  1
 H  H5  1  0.18059  0.56941  0.56941  1
 H  H6  1  0.56941  0.18059  0.18059  1
 H  H7  1  0.81941  0.43059  0.81941  1
 H  H8  1  0.43059  0.81941  0.43059  1
 H  H9  1  0.81941  0.81941  0.43059  1
 H  H10  1  0.43059  0.43059  0.81941  1
 H  H11  1  0.81941  0.43059  0.43059  1
 H  H12  1  0.43059  0.81941  0.81941  1
