CIF file written using JARVIS-Tools package.
data_YbGeIr
_symmetry_space_group_name_H-M  'Pnma'
_cell_length_a       4.35646
_cell_length_b       7.11164
_cell_length_c       7.20229
_cell_angle_alpha    90
_cell_angle_beta     90
_cell_angle_gamma    90

_symmetry_Int_Tables_number  62
_chemical_formula_structural  YbGeIr
_chemical_formula_sum  Yb4Ge4Ir4
_cell_volume  223.13830487849896
_cell_formula_units_Z  4
loop_
  _symmetry_equiv_pos_site_id
 _symmetry_equiv_pos_as_xyz
 1  'x, y, z'
loop_
 _atom_site_type_symbol
 _atom_site_label
 _atom_site_symmetry_multiplicity
 _atom_site_fract_x
 _atom_site_fract_y
 _atom_site_fract_z
 _atom_site_fract_occupancy
 Ge  Ge1  1  0.75000  0.30180  0.60840  1
 Ge  Ge2  1  0.25000  0.19820  0.10840  1
 Ge  Ge3  1  0.75000  0.80180  0.89160  1
 Ge  Ge4  1  0.25000  0.69820  0.39160  1
 Ir  Ir1  1  0.25000  0.34319  0.42901  1
 Ir  Ir2  1  0.25000  0.84319  0.07099  1
 Ir  Ir3  1  0.75000  0.15681  0.92901  1
 Ir  Ir4  1  0.75000  0.65681  0.57099  1
 Yb  Yb1  1  0.25000  0.00507  0.68374  1
 Yb  Yb2  1  0.75000  0.49493  0.18374  1
 Yb  Yb3  1  0.75000  0.99493  0.31626  1
 Yb  Yb4  1  0.25000  0.50507  0.81626  1
