CIF file written using JARVIS-Tools package.
data_TmAlRh
_symmetry_space_group_name_H-M  'Pnma'
_cell_length_a       4.16355
_cell_length_b       6.77874
_cell_length_c       7.91836
_cell_angle_alpha    90
_cell_angle_beta     90
_cell_angle_gamma    90

_symmetry_Int_Tables_number  62
_chemical_formula_structural  TmAlRh
_chemical_formula_sum  Tm4Al4Rh4
_cell_volume  223.4851917340042
_cell_formula_units_Z  4
loop_
  _symmetry_equiv_pos_site_id
 _symmetry_equiv_pos_as_xyz
 1  'x, y, z'
loop_
 _atom_site_type_symbol
 _atom_site_label
 _atom_site_symmetry_multiplicity
 _atom_site_fract_x
 _atom_site_fract_y
 _atom_site_fract_z
 _atom_site_fract_occupancy
 Al  Al1  1  0.75000  0.63691  0.56030  1
 Al  Al2  1  0.75000  0.13691  0.93970  1
 Al  Al3  1  0.25000  0.36309  0.43970  1
 Al  Al4  1  0.25000  0.86309  0.06030  1
 Rh  Rh1  1  0.75000  0.76205  0.87789  1
 Rh  Rh2  1  0.75000  0.26205  0.62211  1
 Rh  Rh3  1  0.25000  0.23795  0.12211  1
 Rh  Rh4  1  0.25000  0.73795  0.37789  1
 Tm  Tm1  1  0.25000  0.96299  0.67826  1
 Tm  Tm2  1  0.75000  0.53701  0.17826  1
 Tm  Tm3  1  0.25000  0.46299  0.82174  1
 Tm  Tm4  1  0.75000  0.03701  0.32174  1
