CIF file written using JARVIS-Tools package.
data_CeAlCu
_symmetry_space_group_name_H-M  'P-62m'
_cell_length_a       6.97035
_cell_length_b       6.97035
_cell_length_c       4.24158
_cell_angle_alpha    90
_cell_angle_beta     90
_cell_angle_gamma    120

_symmetry_Int_Tables_number  189
_chemical_formula_structural  CeAlCu
_chemical_formula_sum  Ce3Al3Cu3
_cell_volume  178.47082016991655
_cell_formula_units_Z  3
loop_
  _symmetry_equiv_pos_site_id
 _symmetry_equiv_pos_as_xyz
 1  'x, y, z'
loop_
 _atom_site_type_symbol
 _atom_site_label
 _atom_site_symmetry_multiplicity
 _atom_site_fract_x
 _atom_site_fract_y
 _atom_site_fract_z
 _atom_site_fract_occupancy
 Al  Al1  1  0.23472  0.00000  0.00000  1
 Al  Al2  1  0.76528  0.76528  0.00000  1
 Al  Al3  1  0.00000  0.23472  0.00000  1
 Ce  Ce1  1  0.57771  -0.00000  0.50000  1
 Ce  Ce2  1  0.42229  0.42229  0.50000  1
 Ce  Ce3  1  -0.00000  0.57771  0.50000  1
 Cu  Cu1  1  0.66667  0.33333  0.00000  1
 Cu  Cu2  1  0.33333  0.66667  0.00000  1
 Cu  Cu3  1  0.00000  0.00000  0.50000  1
