CIF file written using JARVIS-Tools package.
data_Sc3FeC4
_symmetry_space_group_name_H-M  'Immm'
_cell_length_a       3.38632
_cell_length_b       4.349
_cell_length_c       6.64632
_cell_angle_alpha    109.097
_cell_angle_beta     104.759
_cell_angle_gamma    90

_symmetry_Int_Tables_number  71
_chemical_formula_structural  Sc3FeC4
_chemical_formula_sum  Sc3FeC4
_cell_volume  89.06915567151192
_cell_formula_units_Z  1
loop_
  _symmetry_equiv_pos_site_id
 _symmetry_equiv_pos_as_xyz
 1  'x, y, z'
loop_
 _atom_site_type_symbol
 _atom_site_label
 _atom_site_symmetry_multiplicity
 _atom_site_fract_x
 _atom_site_fract_y
 _atom_site_fract_z
 _atom_site_fract_occupancy
 C  C1  1  0.37557  0.21051  0.75114  1
 C  C2  1  0.62443  0.78949  0.24886  1
 C  C3  1  0.62443  0.45937  0.24886  1
 C  C4  1  0.37557  0.54063  0.75114  1
 Fe  Fe1  1  0.50000  -0.00000  0.00000  1
 Sc  Sc1  1  0.00000  0.50000  0.00000  1
 Sc  Sc2  1  0.18828  0.18828  0.37657  1
 Sc  Sc3  1  0.81172  0.81172  0.62343  1
