CIF file written using JARVIS-Tools package.
data_KCuTe
_symmetry_space_group_name_H-M  'P6_3/mmc'
_cell_length_a       4.48834
_cell_length_b       4.48834
_cell_length_c       9.89207
_cell_angle_alpha    90
_cell_angle_beta     90
_cell_angle_gamma    120

_symmetry_Int_Tables_number  194
_chemical_formula_structural  KCuTe
_chemical_formula_sum  K2Cu2Te2
_cell_volume  172.57978688792116
_cell_formula_units_Z  2
loop_
  _symmetry_equiv_pos_site_id
 _symmetry_equiv_pos_as_xyz
 1  'x, y, z'
loop_
 _atom_site_type_symbol
 _atom_site_label
 _atom_site_symmetry_multiplicity
 _atom_site_fract_x
 _atom_site_fract_y
 _atom_site_fract_z
 _atom_site_fract_occupancy
 Cu  Cu1  1  0.33333  0.66667  0.75000  1
 Cu  Cu2  1  0.66667  0.33333  0.25000  1
 K  K1  1  0.00000  0.00000  0.00000  1
 K  K2  1  0.00000  0.00000  0.50000  1
 Te  Te1  1  0.33333  0.66667  0.25000  1
 Te  Te2  1  0.66667  0.33333  0.75000  1
