CIF file written using JARVIS-Tools package.
data_Co2As
_symmetry_space_group_name_H-M  'P-62m'
_cell_length_a       3.53047
_cell_length_b       6.00048
_cell_length_c       5.99961
_cell_angle_alpha    120.005
_cell_angle_beta     90
_cell_angle_gamma    90

_symmetry_Int_Tables_number  189
_chemical_formula_structural  Co2As
_chemical_formula_sum  Co6As3
_cell_volume  110.06544874441224
_cell_formula_units_Z  3
loop_
  _symmetry_equiv_pos_site_id
 _symmetry_equiv_pos_as_xyz
 1  'x, y, z'
loop_
 _atom_site_type_symbol
 _atom_site_label
 _atom_site_symmetry_multiplicity
 _atom_site_fract_x
 _atom_site_fract_y
 _atom_site_fract_z
 _atom_site_fract_occupancy
 As  As1  1  0.00000  0.33337  0.66672  1
 As  As2  1  0.00000  0.66665  0.33328  1
 As  As3  1  0.50000  0.00003  0.00000  1
 Co  Co1  1  0.00000  0.25697  0.00000  1
 Co  Co2  1  0.00000  0.74302  0.74299  1
 Co  Co3  1  0.00000  0.00003  0.25701  1
 Co  Co4  1  0.50000  0.59948  0.00000  1
 Co  Co5  1  0.50000  0.40056  0.40076  1
 Co  Co6  1  0.50000  0.99979  0.59924  1
