CIF file written using JARVIS-Tools package.
data_Ca3Ni7B2
_symmetry_space_group_name_H-M  'R-3m'
_cell_length_a       7.70284
_cell_length_b       7.70284
_cell_length_c       7.70284
_cell_angle_alpha    38.8943
_cell_angle_beta     38.8943
_cell_angle_gamma    38.8942

_symmetry_Int_Tables_number  166
_chemical_formula_structural  Ca3Ni7B2
_chemical_formula_sum  Ca3Ni7B2
_cell_volume  162.00943778591952
_cell_formula_units_Z  1
loop_
  _symmetry_equiv_pos_site_id
 _symmetry_equiv_pos_as_xyz
 1  'x, y, z'
loop_
 _atom_site_type_symbol
 _atom_site_label
 _atom_site_symmetry_multiplicity
 _atom_site_fract_x
 _atom_site_fract_y
 _atom_site_fract_z
 _atom_site_fract_occupancy
 B  B1  1  0.83095  0.83095  0.83095  1
 B  B2  1  0.16905  0.16905  0.16905  1
 Ca  Ca1  1  0.50000  0.50000  0.50000  1
 Ca  Ca2  1  0.64456  0.64456  0.64456  1
 Ca  Ca3  1  0.35544  0.35544  0.35544  1
 Ni  Ni1  1  0.00000  0.00000  0.00000  1
 Ni  Ni2  1  0.57169  0.06182  0.06182  1
 Ni  Ni3  1  0.06182  0.06182  0.57169  1
 Ni  Ni4  1  0.06182  0.57169  0.06182  1
 Ni  Ni5  1  0.42831  0.93818  0.93818  1
 Ni  Ni6  1  0.93818  0.42831  0.93818  1
 Ni  Ni7  1  0.93818  0.93818  0.42831  1
