CIF file written using JARVIS-Tools package.
data_EuCl3
_symmetry_space_group_name_H-M  'P6_3/m'
_cell_length_a       7.33851
_cell_length_b       7.33852
_cell_length_c       4.14463
_cell_angle_alpha    90
_cell_angle_beta     90
_cell_angle_gamma    120

_symmetry_Int_Tables_number  176
_chemical_formula_structural  EuCl3
_chemical_formula_sum  Eu2Cl6
_cell_volume  193.3002425587208
_cell_formula_units_Z  2
loop_
  _symmetry_equiv_pos_site_id
 _symmetry_equiv_pos_as_xyz
 1  'x, y, z'
loop_
 _atom_site_type_symbol
 _atom_site_label
 _atom_site_symmetry_multiplicity
 _atom_site_fract_x
 _atom_site_fract_y
 _atom_site_fract_z
 _atom_site_fract_occupancy
 Cl  Cl1  1  0.38691  0.30060  0.25000  1
 Cl  Cl2  1  0.91369  0.61309  0.25000  1
 Cl  Cl3  1  0.30060  0.91369  0.75000  1
 Cl  Cl4  1  0.61309  0.69940  0.75000  1
 Cl  Cl5  1  0.08631  0.38691  0.75000  1
 Cl  Cl6  1  0.69940  0.08631  0.25000  1
 Eu  Eu1  1  0.33333  0.66667  0.25000  1
 Eu  Eu2  1  0.66667  0.33333  0.75000  1
