data_image0
_chemical_formula_structural       Au3Cd3Ce3
_chemical_formula_sum              "Au3 Cd3 Ce3"
_cell_length_a       7.93722
_cell_length_b       7.93722
_cell_length_c       4.15434
_cell_angle_alpha    90
_cell_angle_beta     90
_cell_angle_gamma    120

_space_group_name_H-M_alt    "P 1"
_space_group_IT_number       1

loop_
  _space_group_symop_operation_xyz
  'x, y, z'

loop_
  _atom_site_type_symbol
  _atom_site_label
  _atom_site_symmetry_multiplicity
  _atom_site_fract_x
  _atom_site_fract_y
  _atom_site_fract_z
  _atom_site_occupancy
  Au  Au1       1.0  0.00000  0.00000  0.00000  1.0000
  Au  Au2       1.0  0.66700  0.33300  0.50000  1.0000
  Au  Au3       1.0  0.33300  0.66700  0.50000  1.0000
  Cd  Cd1       1.0  0.74800  0.00000  0.50000  1.0000
  Cd  Cd2       1.0  0.25200  0.25200  0.50000  1.0000
  Cd  Cd3       1.0  0.00000  0.74800  0.50000  1.0000
  Ce  Ce1       1.0  0.40800  0.00000  0.00000  1.0000
  Ce  Ce2       1.0  0.00000  0.40800  0.00000  1.0000
  Ce  Ce3       1.0  0.59200  0.59200  0.00000  1.0000
