CIF file written using JARVIS-Tools package.
data_BaCd2Se
_symmetry_space_group_name_H-M  'P4mm'
_cell_length_a       4.2774
_cell_length_b       4.27724
_cell_length_c       7.10517
_cell_angle_alpha    90
_cell_angle_beta     90
_cell_angle_gamma    90

_symmetry_Int_Tables_number  99
_chemical_formula_structural  BaCd2Se
_chemical_formula_sum  BaCd2Se
_cell_volume  129.99232014678097
_cell_formula_units_Z  1
loop_
  _symmetry_equiv_pos_site_id
 _symmetry_equiv_pos_as_xyz
 1  'x, y, z'
loop_
 _atom_site_type_symbol
 _atom_site_label
 _atom_site_symmetry_multiplicity
 _atom_site_fract_x
 _atom_site_fract_y
 _atom_site_fract_z
 _atom_site_fract_occupancy
 Ba  Ba1  1  0.50000  0.50000  0.68453  1
 Cd  Cd1  1  0.00000  0.00000  0.12029  1
 Cd  Cd2  1  0.50000  0.50000  0.16701  1
 Se  Se1  1  0.00000  0.00000  0.52816  1
