CIF file written using JARVIS-Tools package.
data_SmClO
_symmetry_space_group_name_H-M  'P4/nmm'
_cell_length_a       3.99387
_cell_length_b       3.99387
_cell_length_c       6.71875
_cell_angle_alpha    90
_cell_angle_beta     90
_cell_angle_gamma    90

_symmetry_Int_Tables_number  129
_chemical_formula_structural  SmClO
_chemical_formula_sum  Sm2Cl2O2
_cell_volume  107.17070895316628
_cell_formula_units_Z  2
loop_
  _symmetry_equiv_pos_site_id
 _symmetry_equiv_pos_as_xyz
 1  'x, y, z'
loop_
 _atom_site_type_symbol
 _atom_site_label
 _atom_site_symmetry_multiplicity
 _atom_site_fract_x
 _atom_site_fract_y
 _atom_site_fract_z
 _atom_site_fract_occupancy
 Cl  Cl1  1  0.50000  0.00000  0.62715  1
 Cl  Cl2  1  0.00000  0.50000  0.37285  1
 O  O1  1  0.50000  0.50000  0.00000  1
 O  O2  1  0.00000  0.00000  0.00000  1
 Sm  Sm1  1  0.50000  0.00000  0.17383  1
 Sm  Sm2  1  0.00000  0.50000  0.82617  1
