CIF file written using JARVIS-Tools package.
data_SiPd2
_symmetry_space_group_name_H-M  'P-62m'
_cell_length_a       7.80989
_cell_length_b       7.80989
_cell_length_c       2.76568
_cell_angle_alpha    90
_cell_angle_beta     90
_cell_angle_gamma    120

_symmetry_Int_Tables_number  189
_chemical_formula_structural  SiPd2
_chemical_formula_sum  Si3Pd6
_cell_volume  146.0902938073632
_cell_formula_units_Z  3
loop_
  _symmetry_equiv_pos_site_id
 _symmetry_equiv_pos_as_xyz
 1  'x, y, z'
loop_
 _atom_site_type_symbol
 _atom_site_label
 _atom_site_symmetry_multiplicity
 _atom_site_fract_x
 _atom_site_fract_y
 _atom_site_fract_z
 _atom_site_fract_occupancy
 Pd  Pd1  1  -0.00000  0.25388  0.00000  1
 Pd  Pd2  1  0.60212  -0.00000  0.00000  1
 Pd  Pd3  1  0.74612  0.74612  0.00000  1
 Pd  Pd4  1  -0.00000  0.60212  0.00000  1
 Pd  Pd5  1  0.39788  0.39788  0.00000  1
 Pd  Pd6  1  0.25388  -0.00000  0.00000  1
 Si  Si1  1  0.00000  0.00000  0.50000  1
 Si  Si2  1  0.66667  0.33333  0.00000  1
 Si  Si3  1  0.33333  0.66667  0.00000  1
