CIF file written using JARVIS-Tools package.
data_KBi2
_symmetry_space_group_name_H-M  'Fd-3m'
_cell_length_a       6.75946
_cell_length_b       6.75946
_cell_length_c       6.75946
_cell_angle_alpha    60
_cell_angle_beta     60
_cell_angle_gamma    60

_symmetry_Int_Tables_number  227
_chemical_formula_structural  KBi2
_chemical_formula_sum  K2Bi4
_cell_volume  218.38405206093356
_cell_formula_units_Z  2
loop_
  _symmetry_equiv_pos_site_id
 _symmetry_equiv_pos_as_xyz
 1  'x, y, z'
loop_
 _atom_site_type_symbol
 _atom_site_label
 _atom_site_symmetry_multiplicity
 _atom_site_fract_x
 _atom_site_fract_y
 _atom_site_fract_z
 _atom_site_fract_occupancy
 Bi  Bi1  1  0.50000  0.00000  0.00000  1
 Bi  Bi2  1  0.00000  0.50000  -0.00000  1
 Bi  Bi3  1  0.00000  0.00000  0.50000  1
 Bi  Bi4  1  0.00000  0.00000  0.00000  1
 K  K1  1  0.62500  0.62500  0.62500  1
 K  K2  1  0.37500  0.37500  0.37500  1
