CIF file written using JARVIS-Tools package.
data_PbS
_symmetry_space_group_name_H-M  'Amm2'
_cell_length_a       4.09968
_cell_length_b       7.82735
_cell_length_c       7.82735
_cell_angle_alpha    92.3557
_cell_angle_beta     90
_cell_angle_gamma    90

_symmetry_Int_Tables_number  38
_chemical_formula_structural  PbS
_chemical_formula_sum  Pb4S4
_cell_volume  250.96401848422272
_cell_formula_units_Z  4
loop_
  _symmetry_equiv_pos_site_id
 _symmetry_equiv_pos_as_xyz
 1  'x, y, z'
loop_
 _atom_site_type_symbol
 _atom_site_label
 _atom_site_symmetry_multiplicity
 _atom_site_fract_x
 _atom_site_fract_y
 _atom_site_fract_z
 _atom_site_fract_occupancy
 Pb  Pb1  1  0.00000  0.34497  0.67526  1
 Pb  Pb2  1  0.00000  0.67526  0.34497  1
 Pb  Pb3  1  0.50000  0.13896  0.13896  1
 Pb  Pb4  1  0.00000  0.82562  0.82562  1
 S  S1  1  0.50000  0.10678  0.76721  1
 S  S2  1  0.50000  0.76721  0.10678  1
 S  S3  1  0.00000  0.31777  0.31777  1
 S  S4  1  0.50000  0.62763  0.62763  1
