CIF file written using JARVIS-Tools package.
data_KI
_symmetry_space_group_name_H-M  'P6_3/mmc'
_cell_length_a       4.84684
_cell_length_b       8.50903
_cell_length_c       8.39276
_cell_angle_alpha    90
_cell_angle_beta     90
_cell_angle_gamma    90

_symmetry_Int_Tables_number  194
_chemical_formula_structural  KI
_chemical_formula_sum  K4I4
_cell_volume  346.1337128455698
_cell_formula_units_Z  4
loop_
  _symmetry_equiv_pos_site_id
 _symmetry_equiv_pos_as_xyz
 1  'x, y, z'
loop_
 _atom_site_type_symbol
 _atom_site_label
 _atom_site_symmetry_multiplicity
 _atom_site_fract_x
 _atom_site_fract_y
 _atom_site_fract_z
 _atom_site_fract_occupancy
 I  I1  1  0.25000  0.74989  0.41662  1
 I  I2  1  0.25000  0.24989  0.08338  1
 I  I3  1  0.75000  0.25011  0.58338  1
 I  I4  1  0.75000  0.75011  0.91662  1
 K  K1  1  0.25000  0.50001  0.75007  1
 K  K2  1  0.25000  0.00001  0.74993  1
 K  K3  1  0.75000  0.49999  0.24993  1
 K  K4  1  0.75000  -0.00001  0.25007  1
