CIF file written using JARVIS-Tools package.
data_KBaMn2
_symmetry_space_group_name_H-M  'P4/mmm'
_cell_length_a       4.35901
_cell_length_b       4.35901
_cell_length_c       7.91201
_cell_angle_alpha    90
_cell_angle_beta     90
_cell_angle_gamma    90

_symmetry_Int_Tables_number  123
_chemical_formula_structural  KBaMn2
_chemical_formula_sum  KBaMn2
_cell_volume  150.3359530990631
_cell_formula_units_Z  1
loop_
  _symmetry_equiv_pos_site_id
 _symmetry_equiv_pos_as_xyz
 1  'x, y, z'
loop_
 _atom_site_type_symbol
 _atom_site_label
 _atom_site_symmetry_multiplicity
 _atom_site_fract_x
 _atom_site_fract_y
 _atom_site_fract_z
 _atom_site_fract_occupancy
 Ba  Ba1  1  0.50000  0.50000  0.00000  1
 K  K1  1  0.50000  0.50000  0.50000  1
 Mn  Mn1  1  0.00000  0.00000  0.82821  1
 Mn  Mn2  1  0.00000  0.00000  0.17179  1
