CIF file written using JARVIS-Tools package.
data_DyCu2S2
_symmetry_space_group_name_H-M  'P-3m1'
_cell_length_a       3.95952
_cell_length_b       3.95952
_cell_length_c       6.33967
_cell_angle_alpha    90.0485
_cell_angle_beta     89.9515
_cell_angle_gamma    120.01

_symmetry_Int_Tables_number  164
_chemical_formula_structural  DyCu2S2
_chemical_formula_sum  DyCu2S2
_cell_volume  86.06747380565324
_cell_formula_units_Z  1
loop_
  _symmetry_equiv_pos_site_id
 _symmetry_equiv_pos_as_xyz
 1  'x, y, z'
loop_
 _atom_site_type_symbol
 _atom_site_label
 _atom_site_symmetry_multiplicity
 _atom_site_fract_x
 _atom_site_fract_y
 _atom_site_fract_z
 _atom_site_fract_occupancy
 Cu  Cu1  1  0.66700  0.33300  0.67296  1
 Cu  Cu2  1  0.33300  0.66700  0.32704  1
 Dy  Dy1  1  0.00000  0.00000  0.00000  1
 S  S1  1  0.66643  0.33357  0.26713  1
 S  S2  1  0.33357  0.66643  0.73287  1
