CIF file written using JARVIS-Tools package.
data_YAlCu
_symmetry_space_group_name_H-M  'P-62m'
_cell_length_a       4.0077
_cell_length_b       7.06628
_cell_length_c       7.06614
_cell_angle_alpha    120.001
_cell_angle_beta     90
_cell_angle_gamma    90

_symmetry_Int_Tables_number  189
_chemical_formula_structural  YAlCu
_chemical_formula_sum  Y3Al3Cu3
_cell_volume  173.29908596636918
_cell_formula_units_Z  3
loop_
  _symmetry_equiv_pos_site_id
 _symmetry_equiv_pos_as_xyz
 1  'x, y, z'
loop_
 _atom_site_type_symbol
 _atom_site_label
 _atom_site_symmetry_multiplicity
 _atom_site_fract_x
 _atom_site_fract_y
 _atom_site_fract_z
 _atom_site_fract_occupancy
 Al  Al1  1  0.00000  0.23611  -0.00000  1
 Al  Al2  1  0.00000  0.76387  0.76388  1
 Al  Al3  1  0.00000  0.99999  0.23612  1
 Cu  Cu1  1  0.00000  0.33332  0.66667  1
 Cu  Cu2  1  0.00000  0.66665  0.33333  1
 Cu  Cu3  1  0.50000  0.99999  0.00000  1
 Y  Y1  1  0.50000  0.58616  0.00000  1
 Y  Y2  1  0.50000  0.41382  0.41383  1
 Y  Y3  1  0.50000  0.99999  0.58617  1
