CIF file written using JARVIS-Tools package.
data_Nb2C
_symmetry_space_group_name_H-M  'Pnma'
_cell_length_a       3.11953
_cell_length_b       4.99276
_cell_length_c       11.0345
_cell_angle_alpha    90
_cell_angle_beta     90
_cell_angle_gamma    90

_symmetry_Int_Tables_number  62
_chemical_formula_structural  Nb2C
_chemical_formula_sum  Nb8C4
_cell_volume  171.86326102972023
_cell_formula_units_Z  4
loop_
  _symmetry_equiv_pos_site_id
 _symmetry_equiv_pos_as_xyz
 1  'x, y, z'
loop_
 _atom_site_type_symbol
 _atom_site_label
 _atom_site_symmetry_multiplicity
 _atom_site_fract_x
 _atom_site_fract_y
 _atom_site_fract_z
 _atom_site_fract_occupancy
 C  C1  1  0.50000  0.99089  0.37536  1
 C  C2  1  0.00000  0.00911  0.62464  1
 C  C3  1  0.50000  0.50911  0.87536  1
 C  C4  1  0.00000  0.49089  0.12464  1
 Nb  Nb1  1  0.00000  0.73436  0.29658  1
 Nb  Nb2  1  0.50000  0.26564  0.70342  1
 Nb  Nb3  1  0.50000  0.75196  0.54545  1
 Nb  Nb4  1  0.00000  0.76564  0.79658  1
 Nb  Nb5  1  0.50000  0.74804  0.04545  1
 Nb  Nb6  1  0.00000  0.24804  0.45455  1
 Nb  Nb7  1  0.00000  0.25196  0.95455  1
 Nb  Nb8  1  0.50000  0.23436  0.20342  1
