CIF file written using JARVIS-Tools package.
data_ZrAlPt
_symmetry_space_group_name_H-M  'P-62c'
_cell_length_a       7.10826
_cell_length_b       7.10827
_cell_length_c       7.39458
_cell_angle_alpha    90
_cell_angle_beta     90
_cell_angle_gamma    120

_symmetry_Int_Tables_number  190
_chemical_formula_structural  ZrAlPt
_chemical_formula_sum  Zr6Al6Pt6
_cell_volume  323.57207818527905
_cell_formula_units_Z  6
loop_
  _symmetry_equiv_pos_site_id
 _symmetry_equiv_pos_as_xyz
 1  'x, y, z'
loop_
 _atom_site_type_symbol
 _atom_site_label
 _atom_site_symmetry_multiplicity
 _atom_site_fract_x
 _atom_site_fract_y
 _atom_site_fract_z
 _atom_site_fract_occupancy
 Al  Al1  1  0.25731  0.00000  0.50000  1
 Al  Al2  1  0.00000  0.25731  0.50000  1
 Al  Al3  1  0.74269  0.74269  0.50000  1
 Al  Al4  1  0.25731  0.00000  0.00000  1
 Al  Al5  1  0.74269  0.74269  0.00000  1
 Al  Al6  1  0.00000  0.25731  0.00000  1
 Pt  Pt1  1  0.00000  0.00000  0.25000  1
 Pt  Pt2  1  0.66667  0.33333  0.97667  1
 Pt  Pt3  1  0.66667  0.33333  0.52333  1
 Pt  Pt4  1  0.33333  0.66667  0.47667  1
 Pt  Pt5  1  0.33333  0.66667  0.02333  1
 Pt  Pt6  1  0.00000  0.00000  0.75000  1
 Zr  Zr1  1  0.39469  0.41218  0.75000  1
 Zr  Zr2  1  0.41218  0.39469  0.25000  1
 Zr  Zr3  1  0.58782  0.98252  0.75000  1
 Zr  Zr4  1  0.60531  0.01748  0.25000  1
 Zr  Zr5  1  0.98252  0.58782  0.25000  1
 Zr  Zr6  1  0.01748  0.60531  0.75000  1
