CIF file written using JARVIS-Tools package.
data_CuBr2
_symmetry_space_group_name_H-M  'C2/m'
_cell_length_a       3.50349
_cell_length_b       4.03896
_cell_length_c       6.20159
_cell_angle_alpha    85.4978
_cell_angle_beta     73.5924
_cell_angle_gamma    64.2966

_symmetry_Int_Tables_number  12
_chemical_formula_structural  CuBr2
_chemical_formula_sum  CuBr2
_cell_volume  75.75346937558469
_cell_formula_units_Z  1
loop_
  _symmetry_equiv_pos_site_id
 _symmetry_equiv_pos_as_xyz
 1  'x, y, z'
loop_
 _atom_site_type_symbol
 _atom_site_label
 _atom_site_symmetry_multiplicity
 _atom_site_fract_x
 _atom_site_fract_y
 _atom_site_fract_z
 _atom_site_fract_occupancy
 Br  Br1  1  0.25348  0.24339  0.24966  1
 Br  Br2  1  0.74652  0.75661  0.75034  1
 Cu  Cu1  1  0.00000  0.00000  0.00000  1
