CIF file written using JARVIS-Tools package.
data_Tl2SnCl6
_symmetry_space_group_name_H-M  'Fm-3m'
_cell_length_a       7.04872
_cell_length_b       7.04872
_cell_length_c       7.04872
_cell_angle_alpha    60
_cell_angle_beta     60
_cell_angle_gamma    60

_symmetry_Int_Tables_number  225
_chemical_formula_structural  Tl2SnCl6
_chemical_formula_sum  Tl2SnCl6
_cell_volume  247.63742723954763
_cell_formula_units_Z  1
loop_
  _symmetry_equiv_pos_site_id
 _symmetry_equiv_pos_as_xyz
 1  'x, y, z'
loop_
 _atom_site_type_symbol
 _atom_site_label
 _atom_site_symmetry_multiplicity
 _atom_site_fract_x
 _atom_site_fract_y
 _atom_site_fract_z
 _atom_site_fract_occupancy
 Cl  Cl1  1  0.24741  0.75259  0.75259  1
 Cl  Cl2  1  0.24741  0.75259  0.24741  1
 Cl  Cl3  1  0.75259  0.24741  0.75259  1
 Cl  Cl4  1  0.75259  0.24741  0.24741  1
 Cl  Cl5  1  0.75259  0.75259  0.24741  1
 Cl  Cl6  1  0.24741  0.24741  0.75259  1
 Sn  Sn1  1  0.00000  0.00000  0.00000  1
 Tl  Tl1  1  0.25000  0.25000  0.25000  1
 Tl  Tl2  1  0.75000  0.75000  0.75000  1
