CIF file written using JARVIS-Tools package.
data_BaScSe4
_symmetry_space_group_name_H-M  'F-43m'
_cell_length_a       6.0197
_cell_length_b       6.0197
_cell_length_c       6.0197
_cell_angle_alpha    60
_cell_angle_beta     60
_cell_angle_gamma    60

_symmetry_Int_Tables_number  216
_chemical_formula_structural  BaScSe4
_chemical_formula_sum  BaScSe4
_cell_volume  154.24416827374856
_cell_formula_units_Z  1
loop_
  _symmetry_equiv_pos_site_id
 _symmetry_equiv_pos_as_xyz
 1  'x, y, z'
loop_
 _atom_site_type_symbol
 _atom_site_label
 _atom_site_symmetry_multiplicity
 _atom_site_fract_x
 _atom_site_fract_y
 _atom_site_fract_z
 _atom_site_fract_occupancy
 Ba  Ba1  1  0.25000  0.25000  0.25000  1
 Sc  Sc1  1  0.00000  0.00000  0.00000  1
 Se  Se1  1  0.12170  0.62610  0.62610  1
 Se  Se2  1  0.62610  0.62610  0.62610  1
 Se  Se3  1  0.62610  0.12170  0.62610  1
 Se  Se4  1  0.62610  0.62610  0.12170  1
