CIF file written using JARVIS-Tools package.
data_Fe2OF3
_symmetry_space_group_name_H-M  'Cmcm'
_cell_length_a       4.65971
_cell_length_b       4.65971
_cell_length_c       5.97099
_cell_angle_alpha    90
_cell_angle_beta     90
_cell_angle_gamma    93.4464

_symmetry_Int_Tables_number  63
_chemical_formula_structural  Fe2OF3
_chemical_formula_sum  Fe4O2F6
_cell_volume  129.41274078254628
_cell_formula_units_Z  2
loop_
  _symmetry_equiv_pos_site_id
 _symmetry_equiv_pos_as_xyz
 1  'x, y, z'
loop_
 _atom_site_type_symbol
 _atom_site_label
 _atom_site_symmetry_multiplicity
 _atom_site_fract_x
 _atom_site_fract_y
 _atom_site_fract_z
 _atom_site_fract_occupancy
 F  F1  1  0.18622  0.81378  0.25000  1
 F  F2  1  0.18622  0.81378  0.75000  1
 F  F3  1  0.27951  0.27951  0.00000  1
 F  F4  1  0.72049  0.72049  0.50000  1
 F  F5  1  0.81378  0.18622  0.75000  1
 F  F6  1  0.81378  0.18622  0.25000  1
 Fe  Fe1  1  0.97487  0.97487  0.00000  1
 Fe  Fe2  1  0.02513  0.02513  0.50000  1
 Fe  Fe3  1  0.50000  0.50000  0.25000  1
 Fe  Fe4  1  0.50000  0.50000  0.75000  1
 O  O1  1  0.30800  0.30800  0.50000  1
 O  O2  1  0.69200  0.69200  0.00000  1
