CIF file written using JARVIS-Tools package.
data_Ca3Mg
_symmetry_space_group_name_H-M  'P6_3/mmc'
_cell_length_a       7.3749
_cell_length_b       7.3749
_cell_length_c       5.97499
_cell_angle_alpha    90
_cell_angle_beta     90
_cell_angle_gamma    120

_symmetry_Int_Tables_number  194
_chemical_formula_structural  Ca3Mg
_chemical_formula_sum  Ca6Mg2
_cell_volume  281.4362663347187
_cell_formula_units_Z  2
loop_
  _symmetry_equiv_pos_site_id
 _symmetry_equiv_pos_as_xyz
 1  'x, y, z'
loop_
 _atom_site_type_symbol
 _atom_site_label
 _atom_site_symmetry_multiplicity
 _atom_site_fract_x
 _atom_site_fract_y
 _atom_site_fract_z
 _atom_site_fract_occupancy
 Ca  Ca1  1  0.16988  0.83012  0.75000  1
 Ca  Ca2  1  0.66024  0.83012  0.75000  1
 Ca  Ca3  1  0.16988  0.33976  0.75000  1
 Ca  Ca4  1  0.83012  0.16988  0.25000  1
 Ca  Ca5  1  0.83012  0.66024  0.25000  1
 Ca  Ca6  1  0.33976  0.16988  0.25000  1
 Mg  Mg1  1  0.66667  0.33333  0.75000  1
 Mg  Mg2  1  0.33333  0.66667  0.25000  1
