CIF file written using JARVIS-Tools package.
data_LiNdSe2
_symmetry_space_group_name_H-M  'I4_1/amd'
_cell_length_a       8.29002
_cell_length_b       10.9661
_cell_length_c       7.17807
_cell_angle_alpha    29.2097
_cell_angle_beta     54.7283
_cell_angle_gamma    40.8902

_symmetry_Int_Tables_number  141
_chemical_formula_structural  LiNdSe2
_chemical_formula_sum  Li2Nd2Se4
_cell_volume  201.4116313189687
_cell_formula_units_Z  2
loop_
  _symmetry_equiv_pos_site_id
 _symmetry_equiv_pos_as_xyz
 1  'x, y, z'
loop_
 _atom_site_type_symbol
 _atom_site_label
 _atom_site_symmetry_multiplicity
 _atom_site_fract_x
 _atom_site_fract_y
 _atom_site_fract_z
 _atom_site_fract_occupancy
 Li  Li1  1  0.50000  0.00000  0.00000  1
 Li  Li2  1  0.25000  0.50000  -0.00000  1
 Nd  Nd1  1  -0.00002  0.00000  0.00000  1
 Nd  Nd2  1  0.75002  0.50000  -0.00000  1
 Se  Se1  1  0.25142  -0.00001  0.49716  1
 Se  Se2  1  0.00144  0.49999  0.49716  1
 Se  Se3  1  0.74856  0.00001  0.50284  1
 Se  Se4  1  0.49858  0.50001  0.50284  1
