CIF file written using JARVIS-Tools package.
data_BaZnBi2
_symmetry_space_group_name_H-M  'P4mm'
_cell_length_a       4.27739
_cell_length_b       4.27752
_cell_length_c       7.34622
_cell_angle_alpha    90
_cell_angle_beta     90
_cell_angle_gamma    90

_symmetry_Int_Tables_number  99
_chemical_formula_structural  BaZnBi2
_chemical_formula_sum  BaZnBi2
_cell_volume  134.41097834755394
_cell_formula_units_Z  1
loop_
  _symmetry_equiv_pos_site_id
 _symmetry_equiv_pos_as_xyz
 1  'x, y, z'
loop_
 _atom_site_type_symbol
 _atom_site_label
 _atom_site_symmetry_multiplicity
 _atom_site_fract_x
 _atom_site_fract_y
 _atom_site_fract_z
 _atom_site_fract_occupancy
 Ba  Ba1  1  0.50000  0.50000  0.73512  1
 Bi  Bi1  1  0.00000  0.00000  0.06052  1
 Bi  Bi2  1  0.50000  0.50000  0.23780  1
 Zn  Zn1  1  0.00000  0.00000  0.46656  1
