CIF file written using JARVIS-Tools package.
data_V5Ge3B
_symmetry_space_group_name_H-M  'P6_3/mcm'
_cell_length_a       7.35308
_cell_length_b       7.35308
_cell_length_c       4.94895
_cell_angle_alpha    90
_cell_angle_beta     90
_cell_angle_gamma    120

_symmetry_Int_Tables_number  193
_chemical_formula_structural  V5Ge3B
_chemical_formula_sum  V0Ge6B2
_cell_volume  231.73011771715767
_cell_formula_units_Z  2
loop_
  _symmetry_equiv_pos_site_id
 _symmetry_equiv_pos_as_xyz
 1  'x, y, z'
loop_
 _atom_site_type_symbol
 _atom_site_label
 _atom_site_symmetry_multiplicity
 _atom_site_fract_x
 _atom_site_fract_y
 _atom_site_fract_z
 _atom_site_fract_occupancy
 B  B1  1  0.00000  0.00000  0.50000  1
 B  B2  1  0.00000  0.00000  0.00000  1
 Ge  Ge1  1  0.60120  0.60120  0.75000  1
 Ge  Ge2  1  0.00000  0.39880  0.75000  1
 Ge  Ge3  1  0.39880  0.00000  0.75000  1
 Ge  Ge4  1  0.39880  0.39880  0.25000  1
 Ge  Ge5  1  1.00000  0.60120  0.25000  1
 Ge  Ge6  1  0.60120  1.00000  0.25000  1
 V  V1  1  0.24269  0.00000  0.25000  1
 V  V2  1  0.33333  0.66667  0.00000  1
 V  V3  1  0.33333  0.66667  0.50000  1
 V  V4  1  1.00000  0.75731  0.75000  1
 V  V5  1  0.00000  0.24269  0.25000  1
 V  V6  1  0.75731  0.75731  0.25000  1
 V  V7  1  0.75731  1.00000  0.75000  1
 V  V8  1  0.24269  0.24269  0.75000  1
 V  V9  1  0.66667  0.33333  0.00000  1
 V  V10  1  0.66667  0.33333  0.50000  1
