CIF file written using JARVIS-Tools package.
data_BaNaTi4
_symmetry_space_group_name_H-M  'F-43m'
_cell_length_a       5.94632
_cell_length_b       5.94632
_cell_length_c       5.94632
_cell_angle_alpha    60
_cell_angle_beta     60
_cell_angle_gamma    60

_symmetry_Int_Tables_number  216
_chemical_formula_structural  BaNaTi4
_chemical_formula_sum  BaNaTi4
_cell_volume  148.67228730975594
_cell_formula_units_Z  1
loop_
  _symmetry_equiv_pos_site_id
 _symmetry_equiv_pos_as_xyz
 1  'x, y, z'
loop_
 _atom_site_type_symbol
 _atom_site_label
 _atom_site_symmetry_multiplicity
 _atom_site_fract_x
 _atom_site_fract_y
 _atom_site_fract_z
 _atom_site_fract_occupancy
 Ba  Ba1  1  0.25000  0.25000  0.25000  1
 Na  Na1  1  0.00000  0.00000  0.00000  1
 Ti  Ti1  1  0.09967  0.63344  0.63344  1
 Ti  Ti2  1  0.63344  0.63344  0.63344  1
 Ti  Ti3  1  0.63344  0.09967  0.63344  1
 Ti  Ti4  1  0.63344  0.63344  0.09967  1
