CIF file written using JARVIS-Tools package.
data_Li2CaGeO4
_symmetry_space_group_name_H-M  'I-42m'
_cell_length_a       4.92985
_cell_length_b       4.92985
_cell_length_c       4.92986
_cell_angle_alpha    95.2079
_cell_angle_beta     117.04
_cell_angle_gamma    117.04

_symmetry_Int_Tables_number  121
_chemical_formula_structural  Li2CaGeO4
_chemical_formula_sum  Li2CaGeO4
_cell_volume  88.11647973003302
_cell_formula_units_Z  1
loop_
  _symmetry_equiv_pos_site_id
 _symmetry_equiv_pos_as_xyz
 1  'x, y, z'
loop_
 _atom_site_type_symbol
 _atom_site_label
 _atom_site_symmetry_multiplicity
 _atom_site_fract_x
 _atom_site_fract_y
 _atom_site_fract_z
 _atom_site_fract_occupancy
 Ca  Ca1  1  -0.00000  0.50000  0.50000  1
 Ge  Ge1  1  0.00000  0.00000  0.00000  1
 Li  Li1  1  0.50000  0.75000  0.25000  1
 Li  Li2  1  0.50000  0.25000  0.75000  1
 O  O1  1  0.40802  0.35390  0.35390  1
 O  O2  1  0.59198  0.94588  0.94588  1
 O  O3  1  -0.00000  0.64610  0.05412  1
 O  O4  1  -0.00000  0.05412  0.64610  1
