CIF file written using JARVIS-Tools package.
data_LaH3O3
_symmetry_space_group_name_H-M  'P6_3/m'
_cell_length_a       6.54095
_cell_length_b       6.54079
_cell_length_c       3.84175
_cell_angle_alpha    90
_cell_angle_beta     90
_cell_angle_gamma    119.999

_symmetry_Int_Tables_number  176
_chemical_formula_structural  LaH3O3
_chemical_formula_sum  La2H6O6
_cell_volume  142.34314443365685
_cell_formula_units_Z  2
loop_
  _symmetry_equiv_pos_site_id
 _symmetry_equiv_pos_as_xyz
 1  'x, y, z'
loop_
 _atom_site_type_symbol
 _atom_site_label
 _atom_site_symmetry_multiplicity
 _atom_site_fract_x
 _atom_site_fract_y
 _atom_site_fract_z
 _atom_site_fract_occupancy
 H  H1  1  0.86572  0.72726  0.25000  1
 H  H2  1  0.86154  0.13427  0.25000  1
 H  H3  1  0.27275  0.13847  0.25000  1
 H  H4  1  0.13428  0.27274  0.75000  1
 H  H5  1  0.13846  0.86573  0.75000  1
 H  H6  1  0.72725  0.86153  0.75000  1
 La  La1  1  0.33333  0.66667  0.25000  1
 La  La2  1  0.66667  0.33333  0.75000  1
 O  O1  1  0.91822  0.61126  0.25000  1
 O  O2  1  0.69305  0.08177  0.25000  1
 O  O3  1  0.38874  0.30697  0.25000  1
 O  O4  1  0.08178  0.38874  0.75000  1
 O  O5  1  0.30695  0.91823  0.75000  1
 O  O6  1  0.61126  0.69303  0.75000  1
