CIF file written using JARVIS-Tools package.
data_Rb2NiF6
_symmetry_space_group_name_H-M  'Fm-3m'
_cell_length_a       5.9415
_cell_length_b       5.9415
_cell_length_c       5.9415
_cell_angle_alpha    60
_cell_angle_beta     60
_cell_angle_gamma    60.0001

_symmetry_Int_Tables_number  225
_chemical_formula_structural  Rb2NiF6
_chemical_formula_sum  Rb2NiF6
_cell_volume  148.3111270057363
_cell_formula_units_Z  1
loop_
  _symmetry_equiv_pos_site_id
 _symmetry_equiv_pos_as_xyz
 1  'x, y, z'
loop_
 _atom_site_type_symbol
 _atom_site_label
 _atom_site_symmetry_multiplicity
 _atom_site_fract_x
 _atom_site_fract_y
 _atom_site_fract_z
 _atom_site_fract_occupancy
 F  F1  1  0.21565  0.78435  0.78435  1
 F  F2  1  0.21565  0.78435  0.21565  1
 F  F3  1  0.78435  0.21565  0.78435  1
 F  F4  1  0.78435  0.21565  0.21565  1
 F  F5  1  0.78435  0.78435  0.21565  1
 F  F6  1  0.21565  0.21565  0.78435  1
 Ni  Ni1  1  0.00000  0.00000  0.00000  1
 Rb  Rb1  1  0.75000  0.75000  0.75000  1
 Rb  Rb2  1  0.25000  0.25000  0.25000  1
