CIF file written using JARVIS-Tools package.
data_BaSc2Nb
_symmetry_space_group_name_H-M  'P4/mmm'
_cell_length_a       3.3439
_cell_length_b       3.3451
_cell_length_c       9.92381
_cell_angle_alpha    90
_cell_angle_beta     90
_cell_angle_gamma    90

_symmetry_Int_Tables_number  123
_chemical_formula_structural  BaSc2Nb
_chemical_formula_sum  BaSc2Nb
_cell_volume  111.0046075079274
_cell_formula_units_Z  1
loop_
  _symmetry_equiv_pos_site_id
 _symmetry_equiv_pos_as_xyz
 1  'x, y, z'
loop_
 _atom_site_type_symbol
 _atom_site_label
 _atom_site_symmetry_multiplicity
 _atom_site_fract_x
 _atom_site_fract_y
 _atom_site_fract_z
 _atom_site_fract_occupancy
 Ba  Ba1  1  0.50000  0.50000  0.00000  1
 Nb  Nb1  1  0.50000  0.50000  0.50000  1
 Sc  Sc1  1  0.00000  0.00000  0.68096  1
 Sc  Sc2  1  0.00000  0.00000  0.31904  1
