CIF file written using JARVIS-Tools package.
data_Ti4AlN3
_symmetry_space_group_name_H-M  'P6_3/mmc'
_cell_length_a       2.99931
_cell_length_b       2.9993
_cell_length_c       23.4659
_cell_angle_alpha    90
_cell_angle_beta     90
_cell_angle_gamma    120

_symmetry_Int_Tables_number  194
_chemical_formula_structural  Ti4AlN3
_chemical_formula_sum  Ti8Al2N6
_cell_volume  182.8138322985815
_cell_formula_units_Z  2
loop_
  _symmetry_equiv_pos_site_id
 _symmetry_equiv_pos_as_xyz
 1  'x, y, z'
loop_
 _atom_site_type_symbol
 _atom_site_label
 _atom_site_symmetry_multiplicity
 _atom_site_fract_x
 _atom_site_fract_y
 _atom_site_fract_z
 _atom_site_fract_occupancy
 Al  Al1  1  0.66667  0.33333  0.75000  1
 Al  Al2  1  0.33333  0.66667  0.25000  1
 N  N1  1  0.66667  0.33333  0.10566  1
 N  N2  1  0.33333  0.66667  0.60566  1
 N  N3  1  0.00000  0.00000  0.50000  1
 N  N4  1  0.66667  0.33333  0.39434  1
 N  N5  1  0.33333  0.66667  0.89434  1
 N  N6  1  0.00000  0.00000  0.00000  1
 Ti  Ti1  1  0.33333  0.66667  0.44623  1
 Ti  Ti2  1  0.66667  0.33333  0.55377  1
 Ti  Ti3  1  0.00000  0.00000  0.65436  1
 Ti  Ti4  1  0.00000  0.00000  0.15436  1
 Ti  Ti5  1  0.00000  0.00000  0.84564  1
 Ti  Ti6  1  0.66667  0.33333  0.94623  1
 Ti  Ti7  1  0.00000  0.00000  0.34564  1
 Ti  Ti8  1  0.33333  0.66667  0.05377  1
