CIF file written using JARVIS-Tools package.
data_TiBe2Hg
_symmetry_space_group_name_H-M  'P4/mmm'
_cell_length_a       2.90528
_cell_length_b       2.90528
_cell_length_c       6.58991
_cell_angle_alpha    90
_cell_angle_beta     90
_cell_angle_gamma    90

_symmetry_Int_Tables_number  123
_chemical_formula_structural  TiBe2Hg
_chemical_formula_sum  TiBe2Hg
_cell_volume  55.62321253880823
_cell_formula_units_Z  1
loop_
  _symmetry_equiv_pos_site_id
 _symmetry_equiv_pos_as_xyz
 1  'x, y, z'
loop_
 _atom_site_type_symbol
 _atom_site_label
 _atom_site_symmetry_multiplicity
 _atom_site_fract_x
 _atom_site_fract_y
 _atom_site_fract_z
 _atom_site_fract_occupancy
 Be  Be1  1  0.00000  0.00000  0.74664  1
 Be  Be2  1  0.00000  0.00000  0.25336  1
 Hg  Hg1  1  0.50000  0.50000  0.00000  1
 Ti  Ti1  1  0.50000  0.50000  0.50000  1
