CIF file written using JARVIS-Tools package.
data_BaAl2Si2
_symmetry_space_group_name_H-M  'Cmcm'
_cell_length_a       4.36646
_cell_length_b       5.85418
_cell_length_c       10.294
_cell_angle_alpha    90
_cell_angle_beta     90
_cell_angle_gamma    111.897

_symmetry_Int_Tables_number  63
_chemical_formula_structural  BaAl2Si2
_chemical_formula_sum  Ba2Al4Si4
_cell_volume  244.15253362814698
_cell_formula_units_Z  2
loop_
  _symmetry_equiv_pos_site_id
 _symmetry_equiv_pos_as_xyz
 1  'x, y, z'
loop_
 _atom_site_type_symbol
 _atom_site_label
 _atom_site_symmetry_multiplicity
 _atom_site_fract_x
 _atom_site_fract_y
 _atom_site_fract_z
 _atom_site_fract_occupancy
 Al  Al1  1  0.37977  0.75954  0.96535  1
 Al  Al2  1  0.62023  0.24046  0.46535  1
 Al  Al3  1  0.62023  0.24046  0.03465  1
 Al  Al4  1  0.37977  0.75954  0.53465  1
 Ba  Ba1  1  0.08662  0.17323  0.75000  1
 Ba  Ba2  1  0.91338  0.82677  0.25000  1
 Si  Si1  1  0.19995  0.39991  0.36798  1
 Si  Si2  1  0.80005  0.60009  0.86798  1
 Si  Si3  1  0.19995  0.39991  0.13202  1
 Si  Si4  1  0.80005  0.60009  0.63202  1
