CIF file written using JARVIS-Tools package.
data_DySi2Ir2
_symmetry_space_group_name_H-M  'I4/mmm'
_cell_length_a       4.09516
_cell_length_b       4.09515
_cell_length_c       5.75664
_cell_angle_alpha    110.836
_cell_angle_beta     110.836
_cell_angle_gamma    89.9999

_symmetry_Int_Tables_number  139
_chemical_formula_structural  DySi2Ir2
_chemical_formula_sum  DySi2Ir2
_cell_volume  83.43771625868347
_cell_formula_units_Z  1
loop_
  _symmetry_equiv_pos_site_id
 _symmetry_equiv_pos_as_xyz
 1  'x, y, z'
loop_
 _atom_site_type_symbol
 _atom_site_label
 _atom_site_symmetry_multiplicity
 _atom_site_fract_x
 _atom_site_fract_y
 _atom_site_fract_z
 _atom_site_fract_occupancy
 Dy  Dy1  1  0.00000  0.00000  0.00000  1
 Ir  Ir1  1  0.25000  0.75000  0.50000  1
 Ir  Ir2  1  0.75000  0.25000  0.50000  1
 Si  Si1  1  0.62100  0.62100  0.24200  1
 Si  Si2  1  0.37900  0.37900  0.75800  1
