CIF file written using JARVIS-Tools package.
data_LaH3O3
_symmetry_space_group_name_H-M  'P6_3'
_cell_length_a       6.52826
_cell_length_b       6.52859
_cell_length_c       3.84411
_cell_angle_alpha    90
_cell_angle_beta     90
_cell_angle_gamma    120.003

_symmetry_Int_Tables_number  173
_chemical_formula_structural  LaH3O3
_chemical_formula_sum  La2H6O6
_cell_volume  141.88356113993976
_cell_formula_units_Z  2
loop_
  _symmetry_equiv_pos_site_id
 _symmetry_equiv_pos_as_xyz
 1  'x, y, z'
loop_
 _atom_site_type_symbol
 _atom_site_label
 _atom_site_symmetry_multiplicity
 _atom_site_fract_x
 _atom_site_fract_y
 _atom_site_fract_z
 _atom_site_fract_occupancy
 H  H1  1  0.86692  0.72721  0.34887  1
 H  H2  1  0.86031  0.13311  0.34886  1
 H  H3  1  0.27276  0.13969  0.34884  1
 H  H4  1  0.13308  0.27279  0.84887  1
 H  H5  1  0.13969  0.86689  0.84886  1
 H  H6  1  0.72724  0.86031  0.84884  1
 La  La1  1  0.33334  0.66667  0.31623  1
 La  La2  1  0.66666  0.33333  0.81623  1
 O  O1  1  0.91879  0.61248  0.30692  1
 O  O2  1  0.69369  0.08122  0.30693  1
 O  O3  1  0.38751  0.30630  0.30692  1
 O  O4  1  0.08121  0.38752  0.80692  1
 O  O5  1  0.30631  0.91878  0.80693  1
 O  O6  1  0.61249  0.69370  0.80692  1
