CIF file written using JARVIS-Tools package.
data_BeSiCl
_symmetry_space_group_name_H-M  'I4mm'
_cell_length_a       6.92009
_cell_length_b       6.92009
_cell_length_c       6.92009
_cell_angle_alpha    156.327
_cell_angle_beta     156.327
_cell_angle_gamma    33.7255

_symmetry_Int_Tables_number  107
_chemical_formula_structural  BeSiCl
_chemical_formula_sum  BeSiCl
_cell_volume  53.37217085261437
_cell_formula_units_Z  1
loop_
  _symmetry_equiv_pos_site_id
 _symmetry_equiv_pos_as_xyz
 1  'x, y, z'
loop_
 _atom_site_type_symbol
 _atom_site_label
 _atom_site_symmetry_multiplicity
 _atom_site_fract_x
 _atom_site_fract_y
 _atom_site_fract_z
 _atom_site_fract_occupancy
 Be  Be1  1  0.98746  0.98746  0.00000  1
 Cl  Cl1  1  0.38916  0.38916  0.00000  1
 Si  Si1  1  0.62339  0.62339  0.00000  1
