CIF file written using JARVIS-Tools package.
data_RhN2
_symmetry_space_group_name_H-M  'P2_1/c'
_cell_length_a       4.89728
_cell_length_b       4.89062
_cell_length_c       4.91706
_cell_angle_alpha    90
_cell_angle_beta     108.237
_cell_angle_gamma    90

_symmetry_Int_Tables_number  14
_chemical_formula_structural  RhN2
_chemical_formula_sum  Rh4N8
_cell_volume  111.85182857957669
_cell_formula_units_Z  4
loop_
  _symmetry_equiv_pos_site_id
 _symmetry_equiv_pos_as_xyz
 1  'x, y, z'
loop_
 _atom_site_type_symbol
 _atom_site_label
 _atom_site_symmetry_multiplicity
 _atom_site_fract_x
 _atom_site_fract_y
 _atom_site_fract_z
 _atom_site_fract_occupancy
 N  N1  1  0.19002  0.58794  0.30222  1
 N  N2  1  0.31629  0.08461  0.67204  1
 N  N3  1  0.68371  0.91539  0.32796  1
 N  N4  1  0.19002  0.91206  0.80222  1
 N  N5  1  0.80998  0.08794  0.19778  1
 N  N6  1  0.80998  0.41206  0.69778  1
 N  N7  1  0.68371  0.58461  0.82796  1
 N  N8  1  0.31629  0.41539  0.17204  1
 Rh  Rh1  1  0.23941  0.99947  0.23103  1
 Rh  Rh2  1  0.23941  0.50053  0.73103  1
 Rh  Rh3  1  0.76059  0.49947  0.26897  1
 Rh  Rh4  1  0.76059  0.00053  0.76897  1
