CIF file written using JARVIS-Tools package.
data_K4BePb
_symmetry_space_group_name_H-M  'F-43m'
_cell_length_a       6.97823
_cell_length_b       6.97823
_cell_length_c       6.97823
_cell_angle_alpha    60
_cell_angle_beta     60
_cell_angle_gamma    60

_symmetry_Int_Tables_number  216
_chemical_formula_structural  K4BePb
_chemical_formula_sum  K4BePb
_cell_volume  240.28161316172464
_cell_formula_units_Z  1
loop_
  _symmetry_equiv_pos_site_id
 _symmetry_equiv_pos_as_xyz
 1  'x, y, z'
loop_
 _atom_site_type_symbol
 _atom_site_label
 _atom_site_symmetry_multiplicity
 _atom_site_fract_x
 _atom_site_fract_y
 _atom_site_fract_z
 _atom_site_fract_occupancy
 Be  Be1  1  0.00000  0.00000  0.00000  1
 K  K1  1  0.12550  0.62483  0.62483  1
 K  K2  1  0.62483  0.62483  0.62483  1
 K  K3  1  0.62483  0.12550  0.62483  1
 K  K4  1  0.62483  0.62483  0.12550  1
 Pb  Pb1  1  0.25000  0.25000  0.25000  1
