CIF file written using JARVIS-Tools package.
data_GaFe3
_symmetry_space_group_name_H-M  'P6_3/mmc'
_cell_length_a       4.16764
_cell_length_b       5.16078
_cell_length_c       5.16078
_cell_angle_alpha    120.003
_cell_angle_beta     90
_cell_angle_gamma    90

_symmetry_Int_Tables_number  194
_chemical_formula_structural  GaFe3
_chemical_formula_sum  Ga2Fe6
_cell_volume  96.12533283349252
_cell_formula_units_Z  2
loop_
  _symmetry_equiv_pos_site_id
 _symmetry_equiv_pos_as_xyz
 1  'x, y, z'
loop_
 _atom_site_type_symbol
 _atom_site_label
 _atom_site_symmetry_multiplicity
 _atom_site_fract_x
 _atom_site_fract_y
 _atom_site_fract_z
 _atom_site_fract_occupancy
 Fe  Fe1  1  0.75000  0.15984  0.31963  1
 Fe  Fe2  1  0.75000  0.15984  0.84016  1
 Fe  Fe3  1  0.75000  0.68037  0.84016  1
 Fe  Fe4  1  0.25000  0.84016  0.68037  1
 Fe  Fe5  1  0.25000  0.84016  0.15984  1
 Fe  Fe6  1  0.25000  0.31963  0.15984  1
 Ga  Ga1  1  0.75000  0.66667  0.33333  1
 Ga  Ga2  1  0.25000  0.33333  0.66667  1
