CIF file written using JARVIS-Tools package.
data_GaMo2C
_symmetry_space_group_name_H-M  'P6_3/mmc'
_cell_length_a       3.0838
_cell_length_b       3.0838
_cell_length_c       13.0836
_cell_angle_alpha    90
_cell_angle_beta     90
_cell_angle_gamma    120.003

_symmetry_Int_Tables_number  194
_chemical_formula_structural  GaMo2C
_chemical_formula_sum  Ga2Mo4C2
_cell_volume  107.75097017217007
_cell_formula_units_Z  2
loop_
  _symmetry_equiv_pos_site_id
 _symmetry_equiv_pos_as_xyz
 1  'x, y, z'
loop_
 _atom_site_type_symbol
 _atom_site_label
 _atom_site_symmetry_multiplicity
 _atom_site_fract_x
 _atom_site_fract_y
 _atom_site_fract_z
 _atom_site_fract_occupancy
 C  C1  1  0.00000  0.00000  0.50000  1
 C  C2  1  0.00000  0.00000  0.00000  1
 Ga  Ga1  1  0.66668  0.33332  0.25000  1
 Ga  Ga2  1  0.33332  0.66668  0.75000  1
 Mo  Mo1  1  0.66666  0.33334  0.58891  1
 Mo  Mo2  1  0.33334  0.66666  0.41109  1
 Mo  Mo3  1  0.33334  0.66666  0.08891  1
 Mo  Mo4  1  0.66666  0.33334  0.91109  1
