CIF file written using JARVIS-Tools package.
data_Be2CrSb
_symmetry_space_group_name_H-M  'I4/mmm'
_cell_length_a       4.71587
_cell_length_b       4.71587
_cell_length_c       4.71587
_cell_angle_alpha    134.363
_cell_angle_beta     134.363
_cell_angle_gamma    66.5212

_symmetry_Int_Tables_number  139
_chemical_formula_structural  Be2CrSb
_chemical_formula_sum  Be2CrSb
_cell_volume  52.758136510720526
_cell_formula_units_Z  1
loop_
  _symmetry_equiv_pos_site_id
 _symmetry_equiv_pos_as_xyz
 1  'x, y, z'
loop_
 _atom_site_type_symbol
 _atom_site_label
 _atom_site_symmetry_multiplicity
 _atom_site_fract_x
 _atom_site_fract_y
 _atom_site_fract_z
 _atom_site_fract_occupancy
 Be  Be1  1  0.00000  0.00000  0.00000  1
 Be  Be2  1  0.50000  0.50000  0.00000  1
 Cr  Cr1  1  0.25000  0.75000  0.50000  1
 Sb  Sb1  1  0.75000  0.25000  0.50000  1
