CIF file written using JARVIS-Tools package.
data_BeSi2Rh
_symmetry_space_group_name_H-M  'I-4m2'
_cell_length_a       4.50964
_cell_length_b       4.50964
_cell_length_c       4.50964
_cell_angle_alpha    131.731
_cell_angle_beta     131.731
_cell_angle_gamma    70.6538

_symmetry_Int_Tables_number  119
_chemical_formula_structural  BeSi2Rh
_chemical_formula_sum  BeSi2Rh
_cell_volume  50.03711058652963
_cell_formula_units_Z  1
loop_
  _symmetry_equiv_pos_site_id
 _symmetry_equiv_pos_as_xyz
 1  'x, y, z'
loop_
 _atom_site_type_symbol
 _atom_site_label
 _atom_site_symmetry_multiplicity
 _atom_site_fract_x
 _atom_site_fract_y
 _atom_site_fract_z
 _atom_site_fract_occupancy
 Be  Be1  1  0.50000  0.50000  0.00000  1
 Rh  Rh1  1  0.75000  0.25000  0.50000  1
 Si  Si1  1  0.00000  0.00000  0.00000  1
 Si  Si2  1  0.25000  0.75000  0.50000  1
