CIF file written using JARVIS-Tools package.
data_BeGePd2
_symmetry_space_group_name_H-M  'P4mm'
_cell_length_a       3.23006
_cell_length_b       3.23006
_cell_length_c       5.38538
_cell_angle_alpha    90
_cell_angle_beta     90
_cell_angle_gamma    90

_symmetry_Int_Tables_number  99
_chemical_formula_structural  BeGePd2
_chemical_formula_sum  BeGePd2
_cell_volume  56.187145837255905
_cell_formula_units_Z  1
loop_
  _symmetry_equiv_pos_site_id
 _symmetry_equiv_pos_as_xyz
 1  'x, y, z'
loop_
 _atom_site_type_symbol
 _atom_site_label
 _atom_site_symmetry_multiplicity
 _atom_site_fract_x
 _atom_site_fract_y
 _atom_site_fract_z
 _atom_site_fract_occupancy
 Be  Be1  1  0.00000  0.00000  0.45458  1
 Ge  Ge1  1  0.50000  0.50000  0.76506  1
 Pd  Pd1  1  0.00000  0.00000  0.97318  1
 Pd  Pd2  1  0.50000  0.50000  0.30719  1
