CIF file written using JARVIS-Tools package.
data_BeIn2Ge
_symmetry_space_group_name_H-M  'I-4m2'
_cell_length_a       5.7248
_cell_length_b       5.7248
_cell_length_c       5.7248
_cell_angle_alpha    137.788
_cell_angle_beta     137.788
_cell_angle_gamma    61.2271

_symmetry_Int_Tables_number  119
_chemical_formula_structural  BeIn2Ge
_chemical_formula_sum  BeIn2Ge
_cell_volume  83.74890929962892
_cell_formula_units_Z  1
loop_
  _symmetry_equiv_pos_site_id
 _symmetry_equiv_pos_as_xyz
 1  'x, y, z'
loop_
 _atom_site_type_symbol
 _atom_site_label
 _atom_site_symmetry_multiplicity
 _atom_site_fract_x
 _atom_site_fract_y
 _atom_site_fract_z
 _atom_site_fract_occupancy
 Be  Be1  1  0.50000  0.50000  0.00000  1
 Ge  Ge1  1  0.75000  0.25000  0.50000  1
 In  In1  1  0.00000  0.00000  0.00000  1
 In  In2  1  0.25000  0.75000  0.50000  1
