CIF file written using JARVIS-Tools package.
data_ZrBeZn
_symmetry_space_group_name_H-M  'I4mm'
_cell_length_a       5.66824
_cell_length_b       5.66824
_cell_length_c       5.66824
_cell_angle_alpha    150.045
_cell_angle_beta     150.045
_cell_angle_gamma    42.8755

_symmetry_Int_Tables_number  107
_chemical_formula_structural  ZrBeZn
_chemical_formula_sum  ZrBeZn
_cell_volume  45.28836600805992
_cell_formula_units_Z  1
loop_
  _symmetry_equiv_pos_site_id
 _symmetry_equiv_pos_as_xyz
 1  'x, y, z'
loop_
 _atom_site_type_symbol
 _atom_site_label
 _atom_site_symmetry_multiplicity
 _atom_site_fract_x
 _atom_site_fract_y
 _atom_site_fract_z
 _atom_site_fract_occupancy
 Be  Be1  1  0.98243  0.98243  -0.00000  1
 Zn  Zn1  1  0.36137  0.36137  0.00000  1
 Zr  Zr1  1  0.65619  0.65619  -0.00000  1
