CIF file written using JARVIS-Tools package.
data_Be2ZnRu
_symmetry_space_group_name_H-M  'P4mm'
_cell_length_a       2.90383
_cell_length_b       2.90383
_cell_length_c       5.37243
_cell_angle_alpha    90
_cell_angle_beta     90
_cell_angle_gamma    90

_symmetry_Int_Tables_number  99
_chemical_formula_structural  Be2ZnRu
_chemical_formula_sum  Be2ZnRu
_cell_volume  45.30158975750981
_cell_formula_units_Z  1
loop_
  _symmetry_equiv_pos_site_id
 _symmetry_equiv_pos_as_xyz
 1  'x, y, z'
loop_
 _atom_site_type_symbol
 _atom_site_label
 _atom_site_symmetry_multiplicity
 _atom_site_fract_x
 _atom_site_fract_y
 _atom_site_fract_z
 _atom_site_fract_occupancy
 Be  Be1  1  0.00000  0.00000  0.02932  1
 Be  Be2  1  0.50000  0.50000  0.25023  1
 Ru  Ru1  1  0.00000  0.00000  0.45528  1
 Zn  Zn1  1  0.50000  0.50000  0.76517  1
