CIF file written using JARVIS-Tools package.
data_BeVSn
_symmetry_space_group_name_H-M  'I4mm'
_cell_length_a       5.24953
_cell_length_b       5.24953
_cell_length_c       5.24953
_cell_angle_alpha    145.366
_cell_angle_beta     145.366
_cell_angle_gamma    49.7889

_symmetry_Int_Tables_number  107
_chemical_formula_structural  BeVSn
_chemical_formula_sum  BeVSn
_cell_volume  46.50485249741911
_cell_formula_units_Z  1
loop_
  _symmetry_equiv_pos_site_id
 _symmetry_equiv_pos_as_xyz
 1  'x, y, z'
loop_
 _atom_site_type_symbol
 _atom_site_label
 _atom_site_symmetry_multiplicity
 _atom_site_fract_x
 _atom_site_fract_y
 _atom_site_fract_z
 _atom_site_fract_occupancy
 Be  Be1  1  0.03553  0.03553  -0.00000  1
 Sn  Sn1  1  0.33065  0.33065  -0.00000  1
 V  V1  1  0.63381  0.63381  0.00000  1
