CIF file written using JARVIS-Tools package.
data_Ni6Ge2B
_symmetry_space_group_name_H-M  'P-62m'
_cell_length_a       2.99315
_cell_length_b       6.19855
_cell_length_c       6.19854
_cell_angle_alpha    120
_cell_angle_beta     90
_cell_angle_gamma    90

_symmetry_Int_Tables_number  189
_chemical_formula_structural  Ni6Ge2B
_chemical_formula_sum  Ni6Ge2B
_cell_volume  99.59506630925073
_cell_formula_units_Z  1
loop_
  _symmetry_equiv_pos_site_id
 _symmetry_equiv_pos_as_xyz
 1  'x, y, z'
loop_
 _atom_site_type_symbol
 _atom_site_label
 _atom_site_symmetry_multiplicity
 _atom_site_fract_x
 _atom_site_fract_y
 _atom_site_fract_z
 _atom_site_fract_occupancy
 B  B1  1  0.50000  -0.00001  -0.00000  1
 Ge  Ge1  1  0.00000  0.33333  0.66667  1
 Ge  Ge2  1  0.00000  0.66665  0.33333  1
 Ni  Ni1  1  0.00000  0.23673  0.00000  1
 Ni  Ni2  1  0.00000  0.76324  0.76326  1
 Ni  Ni3  1  0.00000  -0.00002  0.23674  1
 Ni  Ni4  1  0.50000  0.61899  -0.00000  1
 Ni  Ni5  1  0.50000  0.38099  0.38100  1
 Ni  Ni6  1  0.50000  -0.00001  0.61900  1
