CIF file written using JARVIS-Tools package.
data_Li2BeCd
_symmetry_space_group_name_H-M  'F-43m'
_cell_length_a       4.33169
_cell_length_b       4.33169
_cell_length_c       4.33169
_cell_angle_alpha    120.029
_cell_angle_beta     120.029
_cell_angle_gamma    89.9494

_symmetry_Int_Tables_number  216
_chemical_formula_structural  Li2BeCd
_chemical_formula_sum  Li2BeCd
_cell_volume  57.44683177110978
_cell_formula_units_Z  1
loop_
  _symmetry_equiv_pos_site_id
 _symmetry_equiv_pos_as_xyz
 1  'x, y, z'
loop_
 _atom_site_type_symbol
 _atom_site_label
 _atom_site_symmetry_multiplicity
 _atom_site_fract_x
 _atom_site_fract_y
 _atom_site_fract_z
 _atom_site_fract_occupancy
 Be  Be1  1  0.50000  0.50000  0.00000  1
 Cd  Cd1  1  0.75000  0.25000  0.50000  1
 Li  Li1  1  0.00000  0.00000  0.00000  1
 Li  Li2  1  0.25000  0.75000  0.50000  1
