CIF file written using JARVIS-Tools package.
data_BeNbPt
_symmetry_space_group_name_H-M  'I4mm'
_cell_length_a       5.58391
_cell_length_b       5.58391
_cell_length_c       5.58391
_cell_angle_alpha    150.73
_cell_angle_beta     150.73
_cell_angle_gamma    41.8711

_symmetry_Int_Tables_number  107
_chemical_formula_structural  BeNbPt
_chemical_formula_sum  BeNbPt
_cell_volume  41.523432544614515
_cell_formula_units_Z  1
loop_
  _symmetry_equiv_pos_site_id
 _symmetry_equiv_pos_as_xyz
 1  'x, y, z'
loop_
 _atom_site_type_symbol
 _atom_site_label
 _atom_site_symmetry_multiplicity
 _atom_site_fract_x
 _atom_site_fract_y
 _atom_site_fract_z
 _atom_site_fract_occupancy
 Be  Be1  1  0.01642  0.01642  0.00000  1
 Nb  Nb1  1  0.34413  0.34413  -0.00000  1
 Pt  Pt1  1  0.63945  0.63945  -0.00000  1
