CIF file written using JARVIS-Tools package.
data_NaTl
_symmetry_space_group_name_H-M  'P6_3/mmc'
_cell_length_a       5.27424
_cell_length_b       5.27424
_cell_length_c       10.1441
_cell_angle_alpha    90
_cell_angle_beta     90
_cell_angle_gamma    119.996

_symmetry_Int_Tables_number  194
_chemical_formula_structural  NaTl
_chemical_formula_sum  Na4Tl4
_cell_volume  244.3886313653519
_cell_formula_units_Z  4
loop_
  _symmetry_equiv_pos_site_id
 _symmetry_equiv_pos_as_xyz
 1  'x, y, z'
loop_
 _atom_site_type_symbol
 _atom_site_label
 _atom_site_symmetry_multiplicity
 _atom_site_fract_x
 _atom_site_fract_y
 _atom_site_fract_z
 _atom_site_fract_occupancy
 Na  Na1  1  0.66668  0.33332  0.57814  1
 Na  Na2  1  0.33332  0.66668  0.42186  1
 Na  Na3  1  0.33332  0.66668  0.07814  1
 Na  Na4  1  0.66668  0.33332  0.92186  1
 Tl  Tl1  1  0.00000  -0.00000  0.75000  1
 Tl  Tl2  1  -0.00000  0.00000  0.25000  1
 Tl  Tl3  1  0.66667  0.33333  0.25000  1
 Tl  Tl4  1  0.33333  0.66667  0.75000  1
