CIF file written using JARVIS-Tools package.
data_SrTaBe
_symmetry_space_group_name_H-M  'I4mm'
_cell_length_a       6.96177
_cell_length_b       6.96177
_cell_length_c       6.96177
_cell_angle_alpha    154.881
_cell_angle_beta     154.881
_cell_angle_gamma    35.8206

_symmetry_Int_Tables_number  107
_chemical_formula_structural  SrTaBe
_chemical_formula_sum  SrTaBe
_cell_volume  60.727337390816295
_cell_formula_units_Z  1
loop_
  _symmetry_equiv_pos_site_id
 _symmetry_equiv_pos_as_xyz
 1  'x, y, z'
loop_
 _atom_site_type_symbol
 _atom_site_label
 _atom_site_symmetry_multiplicity
 _atom_site_fract_x
 _atom_site_fract_y
 _atom_site_fract_z
 _atom_site_fract_occupancy
 Be  Be1  1  0.02419  0.02419  -0.00000  1
 Sr  Sr1  1  0.34556  0.34556  0.00000  1
 Ta  Ta1  1  0.63025  0.63025  0.00000  1
