CIF file written using JARVIS-Tools package.
data_Sr2LiCoN2
_symmetry_space_group_name_H-M  'P4_2/mnm'
_cell_length_a       5.36714
_cell_length_b       5.36714
_cell_length_c       7.34558
_cell_angle_alpha    90
_cell_angle_beta     90
_cell_angle_gamma    90

_symmetry_Int_Tables_number  136
_chemical_formula_structural  Sr2LiCoN2
_chemical_formula_sum  Sr4Li2Co2N4
_cell_volume  211.59779275329936
_cell_formula_units_Z  2
loop_
  _symmetry_equiv_pos_site_id
 _symmetry_equiv_pos_as_xyz
 1  'x, y, z'
loop_
 _atom_site_type_symbol
 _atom_site_label
 _atom_site_symmetry_multiplicity
 _atom_site_fract_x
 _atom_site_fract_y
 _atom_site_fract_z
 _atom_site_fract_occupancy
 Co  Co1  1  0.50000  0.50000  0.50000  1
 Co  Co2  1  0.00000  0.00000  0.00000  1
 Li  Li1  1  0.00000  0.00000  0.50000  1
 Li  Li2  1  0.50000  0.50000  0.00000  1
 N  N1  1  0.73787  0.73787  0.50000  1
 N  N2  1  0.76213  0.23787  0.00000  1
 N  N3  1  0.26213  0.26213  0.50000  1
 N  N4  1  0.23787  0.76213  0.00000  1
 Sr  Sr1  1  0.00000  0.50000  0.75000  1
 Sr  Sr2  1  0.00000  0.50000  0.25000  1
 Sr  Sr3  1  0.50000  0.00000  0.25000  1
 Sr  Sr4  1  0.50000  0.00000  0.75000  1
