CIF file written using JARVIS-Tools package.
data_ErRu2
_symmetry_space_group_name_H-M  'P6_3/mmc'
_cell_length_a       5.23261
_cell_length_b       5.23261
_cell_length_c       8.85996
_cell_angle_alpha    90
_cell_angle_beta     90
_cell_angle_gamma    120

_symmetry_Int_Tables_number  194
_chemical_formula_structural  ErRu2
_chemical_formula_sum  Er4Ru8
_cell_volume  210.0870000691134
_cell_formula_units_Z  4
loop_
  _symmetry_equiv_pos_site_id
 _symmetry_equiv_pos_as_xyz
 1  'x, y, z'
loop_
 _atom_site_type_symbol
 _atom_site_label
 _atom_site_symmetry_multiplicity
 _atom_site_fract_x
 _atom_site_fract_y
 _atom_site_fract_z
 _atom_site_fract_occupancy
 Er  Er1  1  0.33333  0.66667  0.43293  1
 Er  Er2  1  0.66667  0.33333  0.56707  1
 Er  Er3  1  0.66667  0.33333  0.93293  1
 Er  Er4  1  0.33333  0.66667  0.06707  1
 Ru  Ru1  1  0.17103  0.34205  0.75000  1
 Ru  Ru2  1  0.17103  0.82897  0.75000  1
 Ru  Ru3  1  0.34205  0.17103  0.25000  1
 Ru  Ru4  1  0.82897  0.65795  0.25000  1
 Ru  Ru5  1  0.65795  0.82897  0.75000  1
 Ru  Ru6  1  0.00000  0.00000  0.00000  1
 Ru  Ru7  1  0.82897  0.17103  0.25000  1
 Ru  Ru8  1  0.00000  0.00000  0.50000  1
