CIF file written using JARVIS-Tools package.
data_Ca3N2
_symmetry_space_group_name_H-M  'C2/m'
_cell_length_a       3.7768
_cell_length_b       7.68535
_cell_length_c       9.30689
_cell_angle_alpha    100.103
_cell_angle_beta     90
_cell_angle_gamma    104.224

_symmetry_Int_Tables_number  12
_chemical_formula_structural  Ca3N2
_chemical_formula_sum  Ca9N6
_cell_volume  257.53653207378875
_cell_formula_units_Z  3
loop_
  _symmetry_equiv_pos_site_id
 _symmetry_equiv_pos_as_xyz
 1  'x, y, z'
loop_
 _atom_site_type_symbol
 _atom_site_label
 _atom_site_symmetry_multiplicity
 _atom_site_fract_x
 _atom_site_fract_y
 _atom_site_fract_z
 _atom_site_fract_occupancy
 Ca  Ca1  1  0.12687  0.25375  0.27862  1
 Ca  Ca2  1  0.79047  0.58093  0.37862  1
 Ca  Ca3  1  0.82781  0.65562  0.03497  1
 Ca  Ca4  1  0.20953  0.41907  0.62138  1
 Ca  Ca5  1  0.17219  0.34438  0.96503  1
 Ca  Ca6  1  0.87313  0.74625  0.72138  1
 Ca  Ca7  1  0.46962  0.93924  0.34045  1
 Ca  Ca8  1  0.50000  0.00000  0.00000  1
 Ca  Ca9  1  0.53038  0.06076  0.65955  1
 N  N1  1  0.35907  0.71815  0.51224  1
 N  N2  1  0.03069  0.06138  0.81190  1
 N  N3  1  0.96931  0.93862  0.18810  1
 N  N4  1  0.31771  0.63542  0.86938  1
 N  N5  1  0.64093  0.28185  0.48776  1
 N  N6  1  0.68229  0.36458  0.13062  1
