CIF file written using JARVIS-Tools package.
data_UInPt2
_symmetry_space_group_name_H-M  'P6_3/mmc'
_cell_length_a       4.77899
_cell_length_b       4.77899
_cell_length_c       8.52013
_cell_angle_alpha    90
_cell_angle_beta     90
_cell_angle_gamma    119.997

_symmetry_Int_Tables_number  194
_chemical_formula_structural  UInPt2
_chemical_formula_sum  U2In2Pt4
_cell_volume  168.52414119910748
_cell_formula_units_Z  2
loop_
  _symmetry_equiv_pos_site_id
 _symmetry_equiv_pos_as_xyz
 1  'x, y, z'
loop_
 _atom_site_type_symbol
 _atom_site_label
 _atom_site_symmetry_multiplicity
 _atom_site_fract_x
 _atom_site_fract_y
 _atom_site_fract_z
 _atom_site_fract_occupancy
 In  In1  1  0.66668  0.33332  0.75000  1
 In  In2  1  0.33332  0.66668  0.25000  1
 Pt  Pt1  1  0.66666  0.33334  0.09276  1
 Pt  Pt2  1  0.33334  0.66666  0.90724  1
 Pt  Pt3  1  0.33334  0.66666  0.59276  1
 Pt  Pt4  1  0.66666  0.33334  0.40724  1
 U  U1  1  0.00000  0.00000  0.50000  1
 U  U2  1  0.00000  0.00000  0.00000  1
