CIF file written using JARVIS-Tools package.
data_AuBr
_symmetry_space_group_name_H-M  'I4_1/amd'
_cell_length_a       6.78616
_cell_length_b       6.78616
_cell_length_c       6.78616
_cell_angle_alpha    95.789
_cell_angle_beta     116.716
_cell_angle_gamma    116.716

_symmetry_Int_Tables_number  141
_chemical_formula_structural  AuBr
_chemical_formula_sum  Au4Br4
_cell_volume  230.67672397609255
_cell_formula_units_Z  4
loop_
  _symmetry_equiv_pos_site_id
 _symmetry_equiv_pos_as_xyz
 1  'x, y, z'
loop_
 _atom_site_type_symbol
 _atom_site_label
 _atom_site_symmetry_multiplicity
 _atom_site_fract_x
 _atom_site_fract_y
 _atom_site_fract_z
 _atom_site_fract_occupancy
 Au  Au1  1  0.00000  0.00000  0.50000  1
 Au  Au2  1  0.00000  0.00000  0.00000  1
 Au  Au3  1  0.50000  0.50000  0.00000  1
 Au  Au4  1  0.50000  -0.00000  0.00000  1
 Br  Br1  1  0.75000  0.56640  0.81640  1
 Br  Br2  1  0.25000  0.81640  0.56640  1
 Br  Br3  1  0.25000  0.43360  0.18360  1
 Br  Br4  1  0.75000  0.18360  0.43360  1
