CIF file written using JARVIS-Tools package.
data_Be2Co2Se
_symmetry_space_group_name_H-M  'I4/mmm'
_cell_length_a       6.04085
_cell_length_b       6.04085
_cell_length_c       6.04085
_cell_angle_alpha    148.24
_cell_angle_beta     148.24
_cell_angle_gamma    45.5309

_symmetry_Int_Tables_number  139
_chemical_formula_structural  Be2Co2Se
_chemical_formula_sum  Be2Co2Se
_cell_volume  60.87419798233173
_cell_formula_units_Z  1
loop_
  _symmetry_equiv_pos_site_id
 _symmetry_equiv_pos_as_xyz
 1  'x, y, z'
loop_
 _atom_site_type_symbol
 _atom_site_label
 _atom_site_symmetry_multiplicity
 _atom_site_fract_x
 _atom_site_fract_y
 _atom_site_fract_z
 _atom_site_fract_occupancy
 Be  Be1  1  0.60409  0.60409  -0.00000  1
 Be  Be2  1  0.39591  0.39591  -0.00000  1
 Co  Co1  1  0.75000  0.25000  0.50000  1
 Co  Co2  1  0.25000  0.75000  0.50000  1
 Se  Se1  1  0.00000  0.00000  0.00000  1
