CIF file written using JARVIS-Tools package.
data_BeNbRe
_symmetry_space_group_name_H-M  'I4mm'
_cell_length_a       5.94739
_cell_length_b       5.94739
_cell_length_c       5.94739
_cell_angle_alpha    153.394
_cell_angle_beta     153.394
_cell_angle_gamma    37.9814

_symmetry_Int_Tables_number  107
_chemical_formula_structural  BeNbRe
_chemical_formula_sum  BeNbRe
_cell_volume  42.128239285849176
_cell_formula_units_Z  1
loop_
  _symmetry_equiv_pos_site_id
 _symmetry_equiv_pos_as_xyz
 1  'x, y, z'
loop_
 _atom_site_type_symbol
 _atom_site_label
 _atom_site_symmetry_multiplicity
 _atom_site_fract_x
 _atom_site_fract_y
 _atom_site_fract_z
 _atom_site_fract_occupancy
 Be  Be1  1  0.00827  0.00827  -0.00000  1
 Nb  Nb1  1  0.34785  0.34785  -0.00000  1
 Re  Re1  1  0.64388  0.64388  0.00000  1
