CIF file written using JARVIS-Tools package.
data_TlV5Se8
_symmetry_space_group_name_H-M  'C2/m'
_cell_length_a       3.54483
_cell_length_b       9.05015
_cell_length_c       9.37927
_cell_angle_alpha    103.421
_cell_angle_beta     100.894
_cell_angle_gamma    90.0002

_symmetry_Int_Tables_number  12
_chemical_formula_structural  TlV5Se8
_chemical_formula_sum  TlV5Se8
_cell_volume  287.1032369351879
_cell_formula_units_Z  1
loop_
  _symmetry_equiv_pos_site_id
 _symmetry_equiv_pos_as_xyz
 1  'x, y, z'
loop_
 _atom_site_type_symbol
 _atom_site_label
 _atom_site_symmetry_multiplicity
 _atom_site_fract_x
 _atom_site_fract_y
 _atom_site_fract_z
 _atom_site_fract_occupancy
 Se  Se1  1  0.66294  0.99726  0.32594  1
 Se  Se2  1  0.26016  0.34743  0.52028  1
 Se  Se3  1  0.07100  0.67816  0.14201  1
 Se  Se4  1  0.73984  0.65257  0.47972  1
 Se  Se5  1  0.92900  0.32184  0.85799  1
 Se  Se6  1  0.58621  0.31576  0.17246  1
 Se  Se7  1  0.33706  0.00274  0.67406  1
 Se  Se8  1  0.41379  0.68424  0.82754  1
 Tl  Tl1  1  0.00000  0.00000  0.00000  1
 V  V1  1  0.14727  0.49204  0.29461  1
 V  V2  1  0.79171  0.15972  0.58336  1
 V  V3  1  0.20829  0.84028  0.41664  1
 V  V4  1  0.50000  0.50000  0.00000  1
 V  V5  1  0.85273  0.50796  0.70539  1
