CIF file written using JARVIS-Tools package.
data_SrBe2Sn
_symmetry_space_group_name_H-M  'P4/mmm'
_cell_length_a       3.55506
_cell_length_b       3.55506
_cell_length_c       6.76759
_cell_angle_alpha    90
_cell_angle_beta     90
_cell_angle_gamma    90

_symmetry_Int_Tables_number  123
_chemical_formula_structural  SrBe2Sn
_chemical_formula_sum  SrBe2Sn
_cell_volume  85.53203691804866
_cell_formula_units_Z  1
loop_
  _symmetry_equiv_pos_site_id
 _symmetry_equiv_pos_as_xyz
 1  'x, y, z'
loop_
 _atom_site_type_symbol
 _atom_site_label
 _atom_site_symmetry_multiplicity
 _atom_site_fract_x
 _atom_site_fract_y
 _atom_site_fract_z
 _atom_site_fract_occupancy
 Be  Be1  1  0.00000  0.00000  0.33324  1
 Be  Be2  1  0.00000  0.00000  0.66676  1
 Sn  Sn1  1  0.50000  0.50000  0.50000  1
 Sr  Sr1  1  0.50000  0.50000  0.00000  1
