CIF file written using JARVIS-Tools package.
data_Mg3Sn
_symmetry_space_group_name_H-M  'I4/mmm'
_cell_length_a       4.48662
_cell_length_b       4.48662
_cell_length_c       9.07179
_cell_angle_alpha    90
_cell_angle_beta     90
_cell_angle_gamma    90

_symmetry_Int_Tables_number  139
_chemical_formula_structural  Mg3Sn
_chemical_formula_sum  Mg6Sn2
_cell_volume  182.6130282713104
_cell_formula_units_Z  2
loop_
  _symmetry_equiv_pos_site_id
 _symmetry_equiv_pos_as_xyz
 1  'x, y, z'
loop_
 _atom_site_type_symbol
 _atom_site_label
 _atom_site_symmetry_multiplicity
 _atom_site_fract_x
 _atom_site_fract_y
 _atom_site_fract_z
 _atom_site_fract_occupancy
 Mg  Mg1  1  0.50000  0.50000  0.00000  1
 Mg  Mg2  1  0.50000  0.00000  0.25000  1
 Mg  Mg3  1  0.00000  0.50000  0.25000  1
 Mg  Mg4  1  0.00000  0.00000  0.50000  1
 Mg  Mg5  1  0.00000  0.50000  0.75000  1
 Mg  Mg6  1  0.50000  0.00000  0.75000  1
 Sn  Sn1  1  0.00000  0.00000  0.00000  1
 Sn  Sn2  1  0.50000  0.50000  0.50000  1
