CIF file written using JARVIS-Tools package.
data_Ba2CoMoO6
_symmetry_space_group_name_H-M  'Fm-3m'
_cell_length_a       5.73398
_cell_length_b       5.73391
_cell_length_c       5.73393
_cell_angle_alpha    60.0016
_cell_angle_beta     60.0005
_cell_angle_gamma    59.9996

_symmetry_Int_Tables_number  225
_chemical_formula_structural  Ba2CoMoO6
_chemical_formula_sum  Ba2CoMoO6
_cell_volume  133.30605004729088
_cell_formula_units_Z  1
loop_
  _symmetry_equiv_pos_site_id
 _symmetry_equiv_pos_as_xyz
 1  'x, y, z'
loop_
 _atom_site_type_symbol
 _atom_site_label
 _atom_site_symmetry_multiplicity
 _atom_site_fract_x
 _atom_site_fract_y
 _atom_site_fract_z
 _atom_site_fract_occupancy
 Ba  Ba1  1  0.75000  0.75000  0.75000  1
 Ba  Ba2  1  0.25000  0.25000  0.25000  1
 Co  Co1  1  0.00000  0.00000  0.00000  1
 Mo  Mo1  1  0.50000  0.50000  0.50000  1
 O  O1  1  0.74061  0.25938  0.74051  1
 O  O2  1  0.74050  0.25949  0.25939  1
 O  O3  1  0.25944  0.25947  0.74055  1
 O  O4  1  0.25950  0.74051  0.74061  1
 O  O5  1  0.74056  0.74053  0.25945  1
 O  O6  1  0.25939  0.74062  0.25949  1
