CIF file written using JARVIS-Tools package.
data_Nd2Fe17
_symmetry_space_group_name_H-M  'R-3m'
_cell_length_a       6.31968
_cell_length_b       6.31968
_cell_length_c       6.31968
_cell_angle_alpha    82.5102
_cell_angle_beta     82.5102
_cell_angle_gamma    82.5101

_symmetry_Int_Tables_number  166
_chemical_formula_structural  Nd2Fe17
_chemical_formula_sum  Nd2Fe7
_cell_volume  246.45359197359542
_cell_formula_units_Z  1
loop_
  _symmetry_equiv_pos_site_id
 _symmetry_equiv_pos_as_xyz
 1  'x, y, z'
loop_
 _atom_site_type_symbol
 _atom_site_label
 _atom_site_symmetry_multiplicity
 _atom_site_fract_x
 _atom_site_fract_y
 _atom_site_fract_z
 _atom_site_fract_occupancy
 Fe  Fe1  1  0.09098  0.09098  0.09098  1
 Fe  Fe2  1  0.90902  0.90902  0.90902  1
 Fe  Fe3  1  0.00000  -0.00000  0.50000  1
 Fe  Fe4  1  0.50000  -0.00000  -0.00000  1
 Fe  Fe5  1  0.00000  0.50000  0.00000  1
 Fe  Fe6  1  0.28710  0.71290  0.00000  1
 Fe  Fe7  1  -0.00000  0.28710  0.71290  1
 Fe  Fe8  1  0.71290  -0.00000  0.28710  1
 Fe  Fe9  1  0.71290  0.28710  -0.00000  1
 Fe  Fe10  1  0.00000  0.71290  0.28710  1
 Fe  Fe11  1  0.66512  0.15155  0.66512  1
 Fe  Fe12  1  0.66512  0.66512  0.15155  1
 Fe  Fe13  1  0.15155  0.66512  0.66512  1
 Fe  Fe14  1  0.84845  0.33488  0.33488  1
 Fe  Fe15  1  0.33488  0.84845  0.33488  1
 Fe  Fe16  1  0.33488  0.33488  0.84845  1
 Fe  Fe17  1  0.28710  0.00000  0.71290  1
 Nd  Nd1  1  0.34476  0.34476  0.34476  1
 Nd  Nd2  1  0.65524  0.65524  0.65524  1
