CIF file written using JARVIS-Tools package.
data_Rb3Cu8S6
_symmetry_space_group_name_H-M  'C2/m'
_cell_length_a       3.90262
_cell_length_b       9.14959
_cell_length_c       9.89882
_cell_angle_alpha    106.075
_cell_angle_beta     90
_cell_angle_gamma    102.314

_symmetry_Int_Tables_number  12
_chemical_formula_structural  Rb3Cu8S6
_chemical_formula_sum  Rb3Cu8S6
_cell_volume  331.1700561039051
_cell_formula_units_Z  1
loop_
  _symmetry_equiv_pos_site_id
 _symmetry_equiv_pos_as_xyz
 1  'x, y, z'
loop_
 _atom_site_type_symbol
 _atom_site_label
 _atom_site_symmetry_multiplicity
 _atom_site_fract_x
 _atom_site_fract_y
 _atom_site_fract_z
 _atom_site_fract_occupancy
 Cu  Cu1  1  0.90687  0.81373  0.46296  1
 Cu  Cu2  1  0.30380  0.60761  0.09049  1
 Cu  Cu3  1  0.51954  0.03907  0.64188  1
 Cu  Cu4  1  0.48046  0.96093  0.35812  1
 Cu  Cu5  1  0.90547  0.81094  0.20176  1
 Cu  Cu6  1  0.69620  0.39239  0.90951  1
 Cu  Cu7  1  0.09313  0.18627  0.53704  1
 Cu  Cu8  1  0.09453  0.18906  0.79824  1
 Rb  Rb1  1  0.30952  0.61904  0.69799  1
 Rb  Rb2  1  0.50000  0.00000  0.00000  1
 Rb  Rb3  1  0.69048  0.38096  0.30201  1
 S  S1  1  0.34599  0.69199  0.35241  1
 S  S2  1  0.65401  0.30801  0.64759  1
 S  S3  1  0.83617  0.67235  0.97779  1
 S  S4  1  0.03820  0.07640  0.29904  1
 S  S5  1  0.96180  0.92360  0.70096  1
 S  S6  1  0.16383  0.32765  0.02221  1
