CIF file written using JARVIS-Tools package.
data_Mg6NbCo
_symmetry_space_group_name_H-M  'Amm2'
_cell_length_a       6.20738
_cell_length_b       5.74948
_cell_length_c       4.78744
_cell_angle_alpha    90
_cell_angle_beta     90
_cell_angle_gamma    117.588

_symmetry_Int_Tables_number  38
_chemical_formula_structural  Mg6NbCo
_chemical_formula_sum  Mg6NbCo
_cell_volume  151.43243404088287
_cell_formula_units_Z  1
loop_
  _symmetry_equiv_pos_site_id
 _symmetry_equiv_pos_as_xyz
 1  'x, y, z'
loop_
 _atom_site_type_symbol
 _atom_site_label
 _atom_site_symmetry_multiplicity
 _atom_site_fract_x
 _atom_site_fract_y
 _atom_site_fract_z
 _atom_site_fract_occupancy
 Co  Co1  1  0.17064  0.33532  0.25000  1
 Mg  Mg1  1  0.64453  0.32345  0.25000  1
 Mg  Mg2  1  0.64453  0.82108  0.25000  1
 Mg  Mg3  1  0.33275  0.16626  0.75000  1
 Mg  Mg4  1  0.33275  0.66649  0.75000  1
 Mg  Mg5  1  0.88708  0.19354  0.75000  1
 Mg  Mg6  1  0.84631  0.67316  0.75000  1
 Nb  Nb1  1  0.14142  0.82071  0.25000  1
