CIF file written using JARVIS-Tools package.
data_Pr2Ni2I
_symmetry_space_group_name_H-M  'P6_3/mmc'
_cell_length_a       4.08942
_cell_length_b       4.08943
_cell_length_c       17.4541
_cell_angle_alpha    90
_cell_angle_beta     90
_cell_angle_gamma    120

_symmetry_Int_Tables_number  194
_chemical_formula_structural  Pr2Ni2I
_chemical_formula_sum  Pr4Ni4I2
_cell_volume  252.78640678025218
_cell_formula_units_Z  2
loop_
  _symmetry_equiv_pos_site_id
 _symmetry_equiv_pos_as_xyz
 1  'x, y, z'
loop_
 _atom_site_type_symbol
 _atom_site_label
 _atom_site_symmetry_multiplicity
 _atom_site_fract_x
 _atom_site_fract_y
 _atom_site_fract_z
 _atom_site_fract_occupancy
 I  I1  1  0.66667  0.33333  0.25000  1
 I  I2  1  0.33333  0.66667  0.75000  1
 Ni  Ni1  1  0.66667  0.33333  0.50049  1
 Ni  Ni2  1  0.33333  0.66667  0.00049  1
 Ni  Ni3  1  0.66667  0.33333  0.99951  1
 Ni  Ni4  1  0.33333  0.66667  0.49951  1
 Pr  Pr1  1  0.00000  0.00000  0.60592  1
 Pr  Pr2  1  0.00000  0.00000  0.39408  1
 Pr  Pr3  1  0.00000  0.00000  0.10592  1
 Pr  Pr4  1  0.00000  0.00000  0.89408  1
