CIF file written using JARVIS-Tools package.
data_RbNa2NiO2
_symmetry_space_group_name_H-M  'I4/mmm'
_cell_length_a       4.63459
_cell_length_b       4.63458
_cell_length_c       5.77679
_cell_angle_alpha    113.649
_cell_angle_beta     113.649
_cell_angle_gamma    90

_symmetry_Int_Tables_number  139
_chemical_formula_structural  RbNa2NiO2
_chemical_formula_sum  RbNa2NiO2
_cell_volume  102.18329407755459
_cell_formula_units_Z  1
loop_
  _symmetry_equiv_pos_site_id
 _symmetry_equiv_pos_as_xyz
 1  'x, y, z'
loop_
 _atom_site_type_symbol
 _atom_site_label
 _atom_site_symmetry_multiplicity
 _atom_site_fract_x
 _atom_site_fract_y
 _atom_site_fract_z
 _atom_site_fract_occupancy
 Na  Na1  1  0.75000  0.25000  0.50000  1
 Na  Na2  1  0.25000  0.75000  0.50000  1
 Ni  Ni1  1  0.50000  0.50000  0.00000  1
 O  O1  1  0.68699  0.68699  0.37397  1
 O  O2  1  0.31302  0.31302  0.62603  1
 Rb  Rb1  1  -0.00000  -0.00000  -0.00000  1
