CIF file written using JARVIS-Tools package.
data_BaBrF
_symmetry_space_group_name_H-M  'P4/nmm'
_cell_length_a       4.52787
_cell_length_b       4.52787
_cell_length_c       7.48088
_cell_angle_alpha    90
_cell_angle_beta     90
_cell_angle_gamma    90

_symmetry_Int_Tables_number  129
_chemical_formula_structural  BaBrF
_chemical_formula_sum  Ba2Br2F2
_cell_volume  153.37007808540685
_cell_formula_units_Z  2
loop_
  _symmetry_equiv_pos_site_id
 _symmetry_equiv_pos_as_xyz
 1  'x, y, z'
loop_
 _atom_site_type_symbol
 _atom_site_label
 _atom_site_symmetry_multiplicity
 _atom_site_fract_x
 _atom_site_fract_y
 _atom_site_fract_z
 _atom_site_fract_occupancy
 Ba  Ba1  1  0.00000  0.50000  0.80638  1
 Ba  Ba2  1  0.50000  0.00000  0.19362  1
 Br  Br1  1  0.50000  0.00000  0.64877  1
 Br  Br2  1  0.00000  0.50000  0.35123  1
 F  F1  1  0.50000  0.50000  0.00000  1
 F  F2  1  0.00000  0.00000  0.00000  1
