CIF file written using JARVIS-Tools package.
data_Nd2Fe17
_symmetry_space_group_name_H-M  'R-3m'
_cell_length_a       6.3203
_cell_length_b       6.3203
_cell_length_c       6.3203
_cell_angle_alpha    82.5017
_cell_angle_beta     82.5017
_cell_angle_gamma    82.5017

_symmetry_Int_Tables_number  166
_chemical_formula_structural  Nd2Fe17
_chemical_formula_sum  Nd2Fe7
_cell_volume  246.51304507940176
_cell_formula_units_Z  1
loop_
  _symmetry_equiv_pos_site_id
 _symmetry_equiv_pos_as_xyz
 1  'x, y, z'
loop_
 _atom_site_type_symbol
 _atom_site_label
 _atom_site_symmetry_multiplicity
 _atom_site_fract_x
 _atom_site_fract_y
 _atom_site_fract_z
 _atom_site_fract_occupancy
 Fe  Fe1  1  0.09097  0.09097  0.09097  1
 Fe  Fe2  1  0.90903  0.90903  0.90903  1
 Fe  Fe3  1  0.00000  -0.00000  0.50000  1
 Fe  Fe4  1  0.50000  -0.00000  0.00000  1
 Fe  Fe5  1  0.00000  0.50000  0.00000  1
 Fe  Fe6  1  0.28709  0.71291  0.00000  1
 Fe  Fe7  1  -0.00000  0.28709  0.71291  1
 Fe  Fe8  1  0.71291  -0.00000  0.28709  1
 Fe  Fe9  1  0.71291  0.28709  -0.00000  1
 Fe  Fe10  1  0.00000  0.71291  0.28709  1
 Fe  Fe11  1  0.66511  0.15156  0.66511  1
 Fe  Fe12  1  0.66511  0.66511  0.15156  1
 Fe  Fe13  1  0.15156  0.66511  0.66511  1
 Fe  Fe14  1  0.84844  0.33489  0.33489  1
 Fe  Fe15  1  0.33489  0.84844  0.33489  1
 Fe  Fe16  1  0.33489  0.33489  0.84844  1
 Fe  Fe17  1  0.28709  0.00000  0.71291  1
 Nd  Nd1  1  0.34475  0.34475  0.34475  1
 Nd  Nd2  1  0.65525  0.65525  0.65525  1
