CIF file written using JARVIS-Tools package.
data_LiBe2Br
_symmetry_space_group_name_H-M  'I4/mmm'
_cell_length_a       7.21973
_cell_length_b       7.21973
_cell_length_c       7.21973
_cell_angle_alpha    153.595
_cell_angle_beta     153.595
_cell_angle_gamma    37.6883

_symmetry_Int_Tables_number  139
_chemical_formula_structural  LiBe2Br
_chemical_formula_sum  LiBe2Br
_cell_volume  74.31262188056124
_cell_formula_units_Z  1
loop_
  _symmetry_equiv_pos_site_id
 _symmetry_equiv_pos_as_xyz
 1  'x, y, z'
loop_
 _atom_site_type_symbol
 _atom_site_label
 _atom_site_symmetry_multiplicity
 _atom_site_fract_x
 _atom_site_fract_y
 _atom_site_fract_z
 _atom_site_fract_occupancy
 Be  Be1  1  0.00000  0.00000  0.00000  1
 Be  Be2  1  0.50000  0.50000  0.00000  1
 Br  Br1  1  0.25000  0.75000  0.50000  1
 Li  Li1  1  0.75000  0.25000  0.50000  1
