CIF file written using JARVIS-Tools package.
data_Mn3As
_symmetry_space_group_name_H-M  'Cmcm'
_cell_length_a       3.55412
_cell_length_b       3.56071
_cell_length_c       7.85221
_cell_angle_alpha    90
_cell_angle_beta     103.08
_cell_angle_gamma    90

_symmetry_Int_Tables_number  63
_chemical_formula_structural  Mn3As
_chemical_formula_sum  Mn6As2
_cell_volume  96.7930328271533
_cell_formula_units_Z  2
loop_
  _symmetry_equiv_pos_site_id
 _symmetry_equiv_pos_as_xyz
 1  'x, y, z'
loop_
 _atom_site_type_symbol
 _atom_site_label
 _atom_site_symmetry_multiplicity
 _atom_site_fract_x
 _atom_site_fract_y
 _atom_site_fract_z
 _atom_site_fract_occupancy
 As  As1  1  0.16261  0.25000  0.32521  1
 As  As2  1  0.83739  0.75000  0.67479  1
 Mn  Mn1  1  0.94724  0.25000  0.89448  1
 Mn  Mn2  1  0.05276  0.75000  0.10552  1
 Mn  Mn3  1  0.55076  0.25000  0.10152  1
 Mn  Mn4  1  0.44924  0.75000  0.89848  1
 Mn  Mn5  1  0.31494  0.25000  0.62987  1
 Mn  Mn6  1  0.68506  0.75000  0.37013  1
