CIF file written using JARVIS-Tools package.
data_YSi3Ir
_symmetry_space_group_name_H-M  'I4mm'
_cell_length_a       4.22173
_cell_length_b       4.22173
_cell_length_c       5.74738
_cell_angle_alpha    111.548
_cell_angle_beta     111.548
_cell_angle_gamma    90

_symmetry_Int_Tables_number  107
_chemical_formula_structural  YSi3Ir
_chemical_formula_sum  YSi3Ir
_cell_volume  87.5339448655598
_cell_formula_units_Z  1
loop_
  _symmetry_equiv_pos_site_id
 _symmetry_equiv_pos_as_xyz
 1  'x, y, z'
loop_
 _atom_site_type_symbol
 _atom_site_label
 _atom_site_symmetry_multiplicity
 _atom_site_fract_x
 _atom_site_fract_y
 _atom_site_fract_z
 _atom_site_fract_occupancy
 Ir  Ir1  1  0.65254  0.65254  0.30509  1
 Si  Si1  1  0.41454  0.41454  0.82909  1
 Si  Si2  1  0.76441  0.26441  0.52882  1
 Si  Si3  1  0.26441  0.76441  0.52882  1
 Y  Y1  1  0.99810  0.99810  0.99619  1
