CIF file written using JARVIS-Tools package.
data_TiBe2Cl
_symmetry_space_group_name_H-M  'P4/mmm'
_cell_length_a       3.29297
_cell_length_b       3.29297
_cell_length_c       5.31516
_cell_angle_alpha    90
_cell_angle_beta     90
_cell_angle_gamma    90

_symmetry_Int_Tables_number  123
_chemical_formula_structural  TiBe2Cl
_chemical_formula_sum  TiBe2Cl
_cell_volume  57.63564234339051
_cell_formula_units_Z  1
loop_
  _symmetry_equiv_pos_site_id
 _symmetry_equiv_pos_as_xyz
 1  'x, y, z'
loop_
 _atom_site_type_symbol
 _atom_site_label
 _atom_site_symmetry_multiplicity
 _atom_site_fract_x
 _atom_site_fract_y
 _atom_site_fract_z
 _atom_site_fract_occupancy
 Be  Be1  1  0.00000  0.50000  0.00000  1
 Be  Be2  1  0.50000  0.00000  0.00000  1
 Cl  Cl1  1  0.50000  0.50000  0.50000  1
 Ti  Ti1  1  0.00000  0.00000  0.50000  1
