CIF file written using JARVIS-Tools package.
data_Zr3Be
_symmetry_space_group_name_H-M  'I4/mmm'
_cell_length_a       5.31102
_cell_length_b       5.31102
_cell_length_c       5.31103
_cell_angle_alpha    133.25
_cell_angle_beta     133.25
_cell_angle_gamma    68.2624

_symmetry_Int_Tables_number  139
_chemical_formula_structural  Zr3Be
_chemical_formula_sum  Zr3Be
_cell_volume  78.07865083203633
_cell_formula_units_Z  1
loop_
  _symmetry_equiv_pos_site_id
 _symmetry_equiv_pos_as_xyz
 1  'x, y, z'
loop_
 _atom_site_type_symbol
 _atom_site_label
 _atom_site_symmetry_multiplicity
 _atom_site_fract_x
 _atom_site_fract_y
 _atom_site_fract_z
 _atom_site_fract_occupancy
 Be  Be1  1  0.00000  0.00000  0.00000  1
 Zr  Zr1  1  0.75000  0.25000  0.50000  1
 Zr  Zr2  1  0.25000  0.75000  0.50000  1
 Zr  Zr3  1  0.50000  0.50000  0.00000  1
