CIF file written using JARVIS-Tools package.
data_Mn2AlB2
_symmetry_space_group_name_H-M  'Cmmm'
_cell_length_a       2.83354
_cell_length_b       2.89634
_cell_length_c       5.71521
_cell_angle_alpha    104.678
_cell_angle_beta     90
_cell_angle_gamma    90

_symmetry_Int_Tables_number  65
_chemical_formula_structural  Mn2AlB2
_chemical_formula_sum  Mn2AlB2
_cell_volume  45.373386149370134
_cell_formula_units_Z  1
loop_
  _symmetry_equiv_pos_site_id
 _symmetry_equiv_pos_as_xyz
 1  'x, y, z'
loop_
 _atom_site_type_symbol
 _atom_site_label
 _atom_site_symmetry_multiplicity
 _atom_site_fract_x
 _atom_site_fract_y
 _atom_site_fract_z
 _atom_site_fract_occupancy
 Al  Al1  1  0.50000  0.50000  0.00000  1
 B  B1  1  0.50000  0.70638  0.41276  1
 B  B2  1  0.50000  0.29362  0.58724  1
 Mn  Mn1  1  0.00000  0.85610  0.71220  1
 Mn  Mn2  1  0.00000  0.14390  0.28780  1
