CIF file written using JARVIS-Tools package.
data_LuSi2Rh2
_symmetry_space_group_name_H-M  'I4/mmm'
_cell_length_a       4.04542
_cell_length_b       4.04541
_cell_length_c       5.70461
_cell_angle_alpha    110.767
_cell_angle_beta     110.767
_cell_angle_gamma    89.9999

_symmetry_Int_Tables_number  139
_chemical_formula_structural  LuSi2Rh2
_chemical_formula_sum  LuSi2Rh2
_cell_volume  80.7724319234669
_cell_formula_units_Z  1
loop_
  _symmetry_equiv_pos_site_id
 _symmetry_equiv_pos_as_xyz
 1  'x, y, z'
loop_
 _atom_site_type_symbol
 _atom_site_label
 _atom_site_symmetry_multiplicity
 _atom_site_fract_x
 _atom_site_fract_y
 _atom_site_fract_z
 _atom_site_fract_occupancy
 Lu  Lu1  1  0.00000  0.00000  0.00000  1
 Rh  Rh1  1  0.25000  0.75000  0.50000  1
 Rh  Rh2  1  0.75000  0.25000  0.50000  1
 Si  Si1  1  0.62028  0.62028  0.24055  1
 Si  Si2  1  0.37972  0.37972  0.75945  1
