CIF file written using JARVIS-Tools package.
data_Ce2Mg
_symmetry_space_group_name_H-M  'P-62m'
_cell_length_a       5.66308
_cell_length_b       5.66308
_cell_length_c       5.64762
_cell_angle_alpha    90
_cell_angle_beta     90
_cell_angle_gamma    120

_symmetry_Int_Tables_number  189
_chemical_formula_structural  Ce2Mg
_chemical_formula_sum  Ce4Mg2
_cell_volume  156.85585525307502
_cell_formula_units_Z  2
loop_
  _symmetry_equiv_pos_site_id
 _symmetry_equiv_pos_as_xyz
 1  'x, y, z'
loop_
 _atom_site_type_symbol
 _atom_site_label
 _atom_site_symmetry_multiplicity
 _atom_site_fract_x
 _atom_site_fract_y
 _atom_site_fract_z
 _atom_site_fract_occupancy
 Ce  Ce1  1  1.00000  0.66274  0.00000  1
 Ce  Ce2  1  0.66274  1.00000  0.00000  1
 Ce  Ce3  1  0.33726  0.33726  0.00000  1
 Ce  Ce4  1  0.00000  0.00000  0.50000  1
 Mg  Mg1  1  0.66667  0.33333  0.50000  1
 Mg  Mg2  1  0.33333  0.66667  0.50000  1
