CIF file written using JARVIS-Tools package.
data_Be2NbMo
_symmetry_space_group_name_H-M  'P4/mmm'
_cell_length_a       2.71451
_cell_length_b       2.71451
_cell_length_c       7.0237
_cell_angle_alpha    90
_cell_angle_beta     90
_cell_angle_gamma    90

_symmetry_Int_Tables_number  123
_chemical_formula_structural  Be2NbMo
_chemical_formula_sum  Be2NbMo
_cell_volume  51.75474456433485
_cell_formula_units_Z  1
loop_
  _symmetry_equiv_pos_site_id
 _symmetry_equiv_pos_as_xyz
 1  'x, y, z'
loop_
 _atom_site_type_symbol
 _atom_site_label
 _atom_site_symmetry_multiplicity
 _atom_site_fract_x
 _atom_site_fract_y
 _atom_site_fract_z
 _atom_site_fract_occupancy
 Be  Be1  1  0.00000  0.00000  0.75859  1
 Be  Be2  1  0.00000  0.00000  0.24141  1
 Mo  Mo1  1  0.50000  0.50000  0.00000  1
 Nb  Nb1  1  0.50000  0.50000  0.50000  1
