CIF file written using JARVIS-Tools package.
data_Hf2BeCl
_symmetry_space_group_name_H-M  'P4mm'
_cell_length_a       3.0781
_cell_length_b       3.0781
_cell_length_c       8.80582
_cell_angle_alpha    90
_cell_angle_beta     90
_cell_angle_gamma    90

_symmetry_Int_Tables_number  99
_chemical_formula_structural  Hf2BeCl
_chemical_formula_sum  Hf2BeCl
_cell_volume  83.43238000018675
_cell_formula_units_Z  1
loop_
  _symmetry_equiv_pos_site_id
 _symmetry_equiv_pos_as_xyz
 1  'x, y, z'
loop_
 _atom_site_type_symbol
 _atom_site_label
 _atom_site_symmetry_multiplicity
 _atom_site_fract_x
 _atom_site_fract_y
 _atom_site_fract_z
 _atom_site_fract_occupancy
 Be  Be1  1  0.00000  0.00000  0.43621  1
 Cl  Cl1  1  0.50000  0.50000  0.80722  1
 Hf  Hf1  1  0.00000  0.00000  0.99641  1
 Hf  Hf2  1  0.50000  0.50000  0.26016  1
