CIF file written using JARVIS-Tools package.
data_TmFeO3
_symmetry_space_group_name_H-M  'Pnma'
_cell_length_a       5.05521
_cell_length_b       5.51509
_cell_length_c       7.29776
_cell_angle_alpha    90
_cell_angle_beta     90
_cell_angle_gamma    90

_symmetry_Int_Tables_number  62
_chemical_formula_structural  TmFeO3
_chemical_formula_sum  Tm4Fe4O2
_cell_volume  203.46122608877818
_cell_formula_units_Z  4
loop_
  _symmetry_equiv_pos_site_id
 _symmetry_equiv_pos_as_xyz
 1  'x, y, z'
loop_
 _atom_site_type_symbol
 _atom_site_label
 _atom_site_symmetry_multiplicity
 _atom_site_fract_x
 _atom_site_fract_y
 _atom_site_fract_z
 _atom_site_fract_occupancy
 Fe  Fe1  1  0.00000  0.50000  0.00000  1
 Fe  Fe2  1  0.50000  0.00000  0.00000  1
 Fe  Fe3  1  0.50000  0.00000  0.50000  1
 Fe  Fe4  1  0.00000  0.50000  0.50000  1
 O  O1  1  0.88975  0.53446  0.75000  1
 O  O2  1  0.18549  0.19497  0.55372  1
 O  O3  1  0.81451  0.80503  0.05372  1
 O  O4  1  0.31451  0.69497  0.94628  1
 O  O5  1  0.31451  0.69497  0.55372  1
 O  O6  1  0.81451  0.80503  0.44628  1
 O  O7  1  0.18549  0.19497  0.94628  1
 O  O8  1  0.61025  0.03447  0.75000  1
 O  O9  1  0.68549  0.30503  0.44628  1
 O  O10  1  0.11025  0.46553  0.25000  1
 O  O11  1  0.38975  0.96553  0.25000  1
 O  O12  1  0.68549  0.30503  0.05372  1
 Tm  Tm1  1  0.47488  0.42009  0.75000  1
 Tm  Tm2  1  0.02511  0.92009  0.75000  1
 Tm  Tm3  1  0.52511  0.57991  0.25000  1
 Tm  Tm4  1  0.97489  0.07991  0.25000  1
