CIF file written using JARVIS-Tools package.
data_CaTiBe2
_symmetry_space_group_name_H-M  'P4/mmm'
_cell_length_a       3.17711
_cell_length_b       3.17711
_cell_length_c       6.44244
_cell_angle_alpha    90
_cell_angle_beta     90
_cell_angle_gamma    90

_symmetry_Int_Tables_number  123
_chemical_formula_structural  CaTiBe2
_chemical_formula_sum  CaTiBe2
_cell_volume  65.03010789723166
_cell_formula_units_Z  1
loop_
  _symmetry_equiv_pos_site_id
 _symmetry_equiv_pos_as_xyz
 1  'x, y, z'
loop_
 _atom_site_type_symbol
 _atom_site_label
 _atom_site_symmetry_multiplicity
 _atom_site_fract_x
 _atom_site_fract_y
 _atom_site_fract_z
 _atom_site_fract_occupancy
 Be  Be1  1  0.00000  0.00000  0.68053  1
 Be  Be2  1  0.00000  0.00000  0.31947  1
 Ca  Ca1  1  0.50000  0.50000  0.00000  1
 Ti  Ti1  1  0.50000  0.50000  0.50000  1
