CIF file written using JARVIS-Tools package.
data_GaPd2
_symmetry_space_group_name_H-M  'Pnma'
_cell_length_a       4.08407
_cell_length_b       5.60391
_cell_length_c       7.87027
_cell_angle_alpha    90
_cell_angle_beta     90
_cell_angle_gamma    90

_symmetry_Int_Tables_number  62
_chemical_formula_structural  GaPd2
_chemical_formula_sum  Ga4Pd8
_cell_volume  180.12481283475086
_cell_formula_units_Z  4
loop_
  _symmetry_equiv_pos_site_id
 _symmetry_equiv_pos_as_xyz
 1  'x, y, z'
loop_
 _atom_site_type_symbol
 _atom_site_label
 _atom_site_symmetry_multiplicity
 _atom_site_fract_x
 _atom_site_fract_y
 _atom_site_fract_z
 _atom_site_fract_occupancy
 Ga  Ga1  1  0.75000  0.70693  0.89154  1
 Ga  Ga2  1  0.25000  0.29307  0.10846  1
 Ga  Ga3  1  0.75000  0.20693  0.60846  1
 Ga  Ga4  1  0.25000  0.79307  0.39154  1
 Pd  Pd1  1  0.75000  0.66258  0.56653  1
 Pd  Pd2  1  0.25000  0.33742  0.43347  1
 Pd  Pd3  1  0.75000  0.16258  0.93347  1
 Pd  Pd4  1  0.25000  0.83742  0.06653  1
 Pd  Pd5  1  0.75000  0.54123  0.20609  1
 Pd  Pd6  1  0.25000  0.45877  0.79391  1
 Pd  Pd7  1  0.75000  0.04123  0.29391  1
 Pd  Pd8  1  0.25000  0.95877  0.70609  1
