CIF file written using JARVIS-Tools package.
data_NaSrBe2
_symmetry_space_group_name_H-M  'F-43m'
_cell_length_a       4.88574
_cell_length_b       4.88574
_cell_length_c       4.88574
_cell_angle_alpha    119.993
_cell_angle_beta     119.993
_cell_angle_gamma    90.0113

_symmetry_Int_Tables_number  216
_chemical_formula_structural  NaSrBe2
_chemical_formula_sum  NaSrBe2
_cell_volume  82.47468864844453
_cell_formula_units_Z  1
loop_
  _symmetry_equiv_pos_site_id
 _symmetry_equiv_pos_as_xyz
 1  'x, y, z'
loop_
 _atom_site_type_symbol
 _atom_site_label
 _atom_site_symmetry_multiplicity
 _atom_site_fract_x
 _atom_site_fract_y
 _atom_site_fract_z
 _atom_site_fract_occupancy
 Be  Be1  1  0.00000  0.00000  0.00000  1
 Be  Be2  1  0.25000  0.75000  0.50000  1
 Na  Na1  1  0.50000  0.50000  0.00000  1
 Sr  Sr1  1  0.75000  0.25000  0.50000  1
