CIF file written using JARVIS-Tools package.
data_KBe2Ge
_symmetry_space_group_name_H-M  'Cmmm'
_cell_length_a       5.81038
_cell_length_b       5.81038
_cell_length_c       2.58038
_cell_angle_alpha    90
_cell_angle_beta     90
_cell_angle_gamma    115.018

_symmetry_Int_Tables_number  65
_chemical_formula_structural  KBe2Ge
_chemical_formula_sum  KBe2Ge
_cell_volume  78.94179515015664
_cell_formula_units_Z  1
loop_
  _symmetry_equiv_pos_site_id
 _symmetry_equiv_pos_as_xyz
 1  'x, y, z'
loop_
 _atom_site_type_symbol
 _atom_site_label
 _atom_site_symmetry_multiplicity
 _atom_site_fract_x
 _atom_site_fract_y
 _atom_site_fract_z
 _atom_site_fract_occupancy
 Be  Be1  1  0.00000  0.00000  0.00000  1
 Be  Be2  1  0.50000  0.50000  0.00000  1
 Ge  Ge1  1  0.50000  -0.00000  0.50000  1
 K  K1  1  0.00000  0.50000  0.50000  1
