CIF file written using JARVIS-Tools package.
data_HfMg6Ti
_symmetry_space_group_name_H-M  'Amm2'
_cell_length_a       6.42242
_cell_length_b       6.42242
_cell_length_c       4.93206
_cell_angle_alpha    90
_cell_angle_beta     90
_cell_angle_gamma    122.335

_symmetry_Int_Tables_number  38
_chemical_formula_structural  HfMg6Ti
_chemical_formula_sum  HfMg6Ti
_cell_volume  171.8904267688197
_cell_formula_units_Z  1
loop_
  _symmetry_equiv_pos_site_id
 _symmetry_equiv_pos_as_xyz
 1  'x, y, z'
loop_
 _atom_site_type_symbol
 _atom_site_label
 _atom_site_symmetry_multiplicity
 _atom_site_fract_x
 _atom_site_fract_y
 _atom_site_fract_z
 _atom_site_fract_occupancy
 Hf  Hf1  1  0.30796  0.19204  0.75000  1
 Mg  Mg1  1  0.18038  0.83407  0.25000  1
 Mg  Mg2  1  0.66593  0.31962  0.25000  1
 Mg  Mg3  1  0.67295  0.82705  0.25000  1
 Mg  Mg4  1  0.31721  0.66708  0.75000  1
 Mg  Mg5  1  0.83292  0.18279  0.75000  1
 Mg  Mg6  1  0.82904  0.67096  0.75000  1
 Ti  Ti1  1  0.19361  0.30639  0.25000  1
