CIF file written using JARVIS-Tools package.
data_KBe2Pt
_symmetry_space_group_name_H-M  'I-4m2'
_cell_length_a       5.0132
_cell_length_b       5.0132
_cell_length_c       5.0132
_cell_angle_alpha    132.341
_cell_angle_beta     132.341
_cell_angle_gamma    69.6912

_symmetry_Int_Tables_number  119
_chemical_formula_structural  KBe2Pt
_chemical_formula_sum  KBe2Pt
_cell_volume  67.51322177766268
_cell_formula_units_Z  1
loop_
  _symmetry_equiv_pos_site_id
 _symmetry_equiv_pos_as_xyz
 1  'x, y, z'
loop_
 _atom_site_type_symbol
 _atom_site_label
 _atom_site_symmetry_multiplicity
 _atom_site_fract_x
 _atom_site_fract_y
 _atom_site_fract_z
 _atom_site_fract_occupancy
 Be  Be1  1  0.00000  0.00000  0.00000  1
 Be  Be2  1  0.25000  0.75000  0.50000  1
 K  K1  1  0.50000  0.50000  0.00000  1
 Pt  Pt1  1  0.75000  0.25000  0.50000  1
