CIF file written using JARVIS-Tools package.
data_RbMg6Al
_symmetry_space_group_name_H-M  'Amm2'
_cell_length_a       6.793
_cell_length_b       6.793
_cell_length_c       4.98018
_cell_angle_alpha    90
_cell_angle_beta     90
_cell_angle_gamma    107.503

_symmetry_Int_Tables_number  38
_chemical_formula_structural  RbMg6Al
_chemical_formula_sum  RbMg6Al
_cell_volume  219.17008662331554
_cell_formula_units_Z  1
loop_
  _symmetry_equiv_pos_site_id
 _symmetry_equiv_pos_as_xyz
 1  'x, y, z'
loop_
 _atom_site_type_symbol
 _atom_site_label
 _atom_site_symmetry_multiplicity
 _atom_site_fract_x
 _atom_site_fract_y
 _atom_site_fract_z
 _atom_site_fract_occupancy
 Al  Al1  1  0.15175  0.34825  0.25000  1
 Mg  Mg1  1  0.09894  0.78451  0.25000  1
 Mg  Mg2  1  0.71549  0.40106  0.25000  1
 Mg  Mg3  1  0.63795  0.86205  0.25000  1
 Mg  Mg4  1  0.29873  0.59463  0.75000  1
 Mg  Mg5  1  0.90537  0.20127  0.75000  1
 Mg  Mg6  1  0.80893  0.69107  0.75000  1
 Rb  Rb1  1  0.38284  0.11716  0.75000  1
