CIF file written using JARVIS-Tools package.
data_Be2BiBr
_symmetry_space_group_name_H-M  'P4mm'
_cell_length_a       3.85057
_cell_length_b       3.85057
_cell_length_c       5.39549
_cell_angle_alpha    90
_cell_angle_beta     90
_cell_angle_gamma    90

_symmetry_Int_Tables_number  99
_chemical_formula_structural  Be2BiBr
_chemical_formula_sum  Be2BiBr
_cell_volume  79.99844237473003
_cell_formula_units_Z  1
loop_
  _symmetry_equiv_pos_site_id
 _symmetry_equiv_pos_as_xyz
 1  'x, y, z'
loop_
 _atom_site_type_symbol
 _atom_site_label
 _atom_site_symmetry_multiplicity
 _atom_site_fract_x
 _atom_site_fract_y
 _atom_site_fract_z
 _atom_site_fract_occupancy
 Be  Be1  1  0.00000  0.00000  -0.11394  1
 Be  Be2  1  0.50000  0.50000  0.31778  1
 Bi  Bi1  1  0.00000  0.00000  0.39485  1
 Br  Br1  1  0.50000  0.50000  0.90131  1
