CIF file written using JARVIS-Tools package.
data_YTe2
_symmetry_space_group_name_H-M  'P4/nmm'
_cell_length_a       4.45369
_cell_length_b       4.45369
_cell_length_c       8.87133
_cell_angle_alpha    90
_cell_angle_beta     90
_cell_angle_gamma    90

_symmetry_Int_Tables_number  129
_chemical_formula_structural  YTe2
_chemical_formula_sum  Y2Te4
_cell_volume  175.96611223191334
_cell_formula_units_Z  2
loop_
  _symmetry_equiv_pos_site_id
 _symmetry_equiv_pos_as_xyz
 1  'x, y, z'
loop_
 _atom_site_type_symbol
 _atom_site_label
 _atom_site_symmetry_multiplicity
 _atom_site_fract_x
 _atom_site_fract_y
 _atom_site_fract_z
 _atom_site_fract_occupancy
 Te  Te1  1  0.75000  0.25000  0.00000  1
 Te  Te2  1  0.25000  0.75000  0.00000  1
 Te  Te3  1  0.75000  0.75000  0.37136  1
 Te  Te4  1  0.25000  0.25000  0.62864  1
 Y  Y1  1  0.75000  0.75000  0.72882  1
 Y  Y2  1  0.25000  0.25000  0.27118  1
