CIF file written using JARVIS-Tools package.
data_CaZn3
_symmetry_space_group_name_H-M  'P6_3/mmc'
_cell_length_a       6.45732
_cell_length_b       6.45732
_cell_length_c       4.4349
_cell_angle_alpha    90
_cell_angle_beta     90
_cell_angle_gamma    120

_symmetry_Int_Tables_number  194
_chemical_formula_structural  CaZn3
_chemical_formula_sum  Ca2Zn6
_cell_volume  160.14680196580224
_cell_formula_units_Z  2
loop_
  _symmetry_equiv_pos_site_id
 _symmetry_equiv_pos_as_xyz
 1  'x, y, z'
loop_
 _atom_site_type_symbol
 _atom_site_label
 _atom_site_symmetry_multiplicity
 _atom_site_fract_x
 _atom_site_fract_y
 _atom_site_fract_z
 _atom_site_fract_occupancy
 Ca  Ca1  1  0.66667  0.33333  0.25000  1
 Ca  Ca2  1  0.33333  0.66667  0.75000  1
 Zn  Zn1  1  0.14374  0.28748  0.25000  1
 Zn  Zn2  1  0.71252  0.85626  0.25000  1
 Zn  Zn3  1  0.14374  0.85626  0.25000  1
 Zn  Zn4  1  0.28748  0.14374  0.75000  1
 Zn  Zn5  1  0.85626  0.14374  0.75000  1
 Zn  Zn6  1  0.85626  0.71252  0.75000  1
