CIF file written using JARVIS-Tools package.
data_NdCu2Si2
_symmetry_space_group_name_H-M  'I4/mmm'
_cell_length_a       4.10242
_cell_length_b       4.10242
_cell_length_c       5.77419
_cell_angle_alpha    110.808
_cell_angle_beta     110.808
_cell_angle_gamma    90

_symmetry_Int_Tables_number  139
_chemical_formula_structural  NdCu2Si2
_chemical_formula_sum  NdCu2Si2
_cell_volume  84.02535281369268
_cell_formula_units_Z  1
loop_
  _symmetry_equiv_pos_site_id
 _symmetry_equiv_pos_as_xyz
 1  'x, y, z'
loop_
 _atom_site_type_symbol
 _atom_site_label
 _atom_site_symmetry_multiplicity
 _atom_site_fract_x
 _atom_site_fract_y
 _atom_site_fract_z
 _atom_site_fract_occupancy
 Cu  Cu1  1  0.25000  0.75000  0.50000  1
 Cu  Cu2  1  0.75000  0.25000  0.50000  1
 Nd  Nd1  1  0.00000  0.00000  0.00000  1
 Si  Si1  1  0.62093  0.62093  0.24186  1
 Si  Si2  1  0.37907  0.37907  0.75814  1
