CIF file written using JARVIS-Tools package.
data_Be2Ag
_symmetry_space_group_name_H-M  'Fd-3m'
_cell_length_a       4.52722
_cell_length_b       4.52722
_cell_length_c       4.52722
_cell_angle_alpha    60
_cell_angle_beta     60
_cell_angle_gamma    60

_symmetry_Int_Tables_number  227
_chemical_formula_structural  Be2Ag
_chemical_formula_sum  Be4Ag2
_cell_volume  65.61160886296187
_cell_formula_units_Z  2
loop_
  _symmetry_equiv_pos_site_id
 _symmetry_equiv_pos_as_xyz
 1  'x, y, z'
loop_
 _atom_site_type_symbol
 _atom_site_label
 _atom_site_symmetry_multiplicity
 _atom_site_fract_x
 _atom_site_fract_y
 _atom_site_fract_z
 _atom_site_fract_occupancy
 Ag  Ag1  1  0.12500  0.12500  0.12500  1
 Ag  Ag2  1  0.87500  0.87500  0.87500  1
 Be  Be1  1  0.50000  0.00000  0.50000  1
 Be  Be2  1  0.00000  0.50000  0.50000  1
 Be  Be3  1  0.50000  0.50000  0.50000  1
 Be  Be4  1  0.50000  0.50000  0.00000  1
