CIF file written using JARVIS-Tools package.
data_TaBe2P
_symmetry_space_group_name_H-M  'I-4m2'
_cell_length_a       4.64201
_cell_length_b       4.64201
_cell_length_c       4.64201
_cell_angle_alpha    136.362
_cell_angle_beta     136.362
_cell_angle_gamma    63.4214

_symmetry_Int_Tables_number  119
_chemical_formula_structural  TaBe2P
_chemical_formula_sum  TaBe2P
_cell_volume  47.0214996359574
_cell_formula_units_Z  1
loop_
  _symmetry_equiv_pos_site_id
 _symmetry_equiv_pos_as_xyz
 1  'x, y, z'
loop_
 _atom_site_type_symbol
 _atom_site_label
 _atom_site_symmetry_multiplicity
 _atom_site_fract_x
 _atom_site_fract_y
 _atom_site_fract_z
 _atom_site_fract_occupancy
 Be  Be1  1  0.00000  0.00000  0.00000  1
 Be  Be2  1  0.25000  0.75000  0.50000  1
 P  P1  1  0.50000  0.50000  0.00000  1
 Ta  Ta1  1  0.75000  0.25000  0.50000  1
