CIF file written using JARVIS-Tools package.
data_K2BeW
_symmetry_space_group_name_H-M  'F-43m'
_cell_length_a       5.18356
_cell_length_b       5.18356
_cell_length_c       5.18356
_cell_angle_alpha    119.99
_cell_angle_beta     119.99
_cell_angle_gamma    90.0178

_symmetry_Int_Tables_number  216
_chemical_formula_structural  K2BeW
_chemical_formula_sum  K2BeW
_cell_volume  98.49984673643199
_cell_formula_units_Z  1
loop_
  _symmetry_equiv_pos_site_id
 _symmetry_equiv_pos_as_xyz
 1  'x, y, z'
loop_
 _atom_site_type_symbol
 _atom_site_label
 _atom_site_symmetry_multiplicity
 _atom_site_fract_x
 _atom_site_fract_y
 _atom_site_fract_z
 _atom_site_fract_occupancy
 Be  Be1  1  0.75000  0.25000  0.50000  1
 K  K1  1  0.00000  0.00000  0.00000  1
 K  K2  1  0.25000  0.75000  0.50000  1
 W  W1  1  0.50000  0.50000  0.00000  1
