CIF file written using JARVIS-Tools package.
data_Li3As
_symmetry_space_group_name_H-M  'P6_3/mmc'
_cell_length_a       4.34151
_cell_length_b       4.34151
_cell_length_c       7.74367
_cell_angle_alpha    90
_cell_angle_beta     90
_cell_angle_gamma    120

_symmetry_Int_Tables_number  194
_chemical_formula_structural  Li3As
_chemical_formula_sum  Li6As2
_cell_volume  126.40335048692097
_cell_formula_units_Z  2
loop_
  _symmetry_equiv_pos_site_id
 _symmetry_equiv_pos_as_xyz
 1  'x, y, z'
loop_
 _atom_site_type_symbol
 _atom_site_label
 _atom_site_symmetry_multiplicity
 _atom_site_fract_x
 _atom_site_fract_y
 _atom_site_fract_z
 _atom_site_fract_occupancy
 As  As1  1  0.33333  0.66667  0.25000  1
 As  As2  1  0.66667  0.33333  0.75000  1
 Li  Li1  1  0.00000  0.00000  0.25000  1
 Li  Li2  1  0.00000  0.00000  0.75000  1
 Li  Li3  1  0.33333  0.66667  0.58452  1
 Li  Li4  1  0.66667  0.33333  0.08452  1
 Li  Li5  1  0.66667  0.33333  0.41548  1
 Li  Li6  1  0.33333  0.66667  0.91548  1
