CIF file written using JARVIS-Tools package.
data_FeSb2
_symmetry_space_group_name_H-M  'I4/mcm'
_cell_length_a       5.64429
_cell_length_b       5.44974
_cell_length_c       5.44974
_cell_angle_alpha    74.4447
_cell_angle_beta     58.8118
_cell_angle_gamma    58.8118

_symmetry_Int_Tables_number  140
_chemical_formula_structural  FeSb2
_chemical_formula_sum  Fe2Sb4
_cell_volume  122.6793210409397
_cell_formula_units_Z  2
loop_
  _symmetry_equiv_pos_site_id
 _symmetry_equiv_pos_as_xyz
 1  'x, y, z'
loop_
 _atom_site_type_symbol
 _atom_site_label
 _atom_site_symmetry_multiplicity
 _atom_site_fract_x
 _atom_site_fract_y
 _atom_site_fract_z
 _atom_site_fract_occupancy
 Fe  Fe1  1  0.75000  0.00000  0.00000  1
 Fe  Fe2  1  0.25000  0.00000  0.00000  1
 Sb  Sb1  1  0.33725  0.50000  0.82550  1
 Sb  Sb2  1  0.66275  0.50000  0.17450  1
 Sb  Sb3  1  0.83725  0.82550  0.50000  1
 Sb  Sb4  1  0.16275  0.17450  0.50000  1
