CIF file written using JARVIS-Tools package.
data_PrN
_symmetry_space_group_name_H-M  'Fm-3m'
_cell_length_a       3.68848
_cell_length_b       3.68849
_cell_length_c       3.68849
_cell_angle_alpha    60.0001
_cell_angle_beta     60
_cell_angle_gamma    60.0001

_symmetry_Int_Tables_number  225
_chemical_formula_structural  PrN
_chemical_formula_sum  PrN
_cell_volume  35.48382031292506
_cell_formula_units_Z  1
loop_
  _symmetry_equiv_pos_site_id
 _symmetry_equiv_pos_as_xyz
 1  'x, y, z'
loop_
 _atom_site_type_symbol
 _atom_site_label
 _atom_site_symmetry_multiplicity
 _atom_site_fract_x
 _atom_site_fract_y
 _atom_site_fract_z
 _atom_site_fract_occupancy
 N  N1  1  0.00000  0.00000  0.00000  1
 Pr  Pr1  1  0.50000  0.50000  0.50000  1
