CIF file written using JARVIS-Tools package.
data_HoNi5
_symmetry_space_group_name_H-M  'P6/mmm'
_cell_length_a       3.95535
_cell_length_b       4.85084
_cell_length_c       4.85082
_cell_angle_alpha    120
_cell_angle_beta     90
_cell_angle_gamma    90

_symmetry_Int_Tables_number  191
_chemical_formula_structural  HoNi5
_chemical_formula_sum  HoNi5
_cell_volume  80.60225426380694
_cell_formula_units_Z  1
loop_
  _symmetry_equiv_pos_site_id
 _symmetry_equiv_pos_as_xyz
 1  'x, y, z'
loop_
 _atom_site_type_symbol
 _atom_site_label
 _atom_site_symmetry_multiplicity
 _atom_site_fract_x
 _atom_site_fract_y
 _atom_site_fract_z
 _atom_site_fract_occupancy
 Ho  Ho1  1  0.00000  0.99998  0.00000  1
 Ni  Ni1  1  0.50000  0.50000  0.00000  1
 Ni  Ni2  1  0.50000  0.49999  0.50000  1
 Ni  Ni3  1  0.50000  0.99999  0.50000  1
 Ni  Ni4  1  0.00000  0.33331  0.66668  1
 Ni  Ni5  1  0.00000  0.66663  0.33332  1
