CIF file written using JARVIS-Tools package.
data_SrZn2P2
_symmetry_space_group_name_H-M  'P-3m1'
_cell_length_a       4.11637
_cell_length_b       4.11637
_cell_length_c       7.10972
_cell_angle_alpha    90
_cell_angle_beta     90
_cell_angle_gamma    120

_symmetry_Int_Tables_number  164
_chemical_formula_structural  SrZn2P2
_chemical_formula_sum  SrZn2P2
_cell_volume  104.33059577206917
_cell_formula_units_Z  1
loop_
  _symmetry_equiv_pos_site_id
 _symmetry_equiv_pos_as_xyz
 1  'x, y, z'
loop_
 _atom_site_type_symbol
 _atom_site_label
 _atom_site_symmetry_multiplicity
 _atom_site_fract_x
 _atom_site_fract_y
 _atom_site_fract_z
 _atom_site_fract_occupancy
 P  P1  1  0.33333  0.66667  0.27258  1
 P  P2  1  0.66667  0.33333  0.72742  1
 Sr  Sr1  1  0.00000  0.00000  0.00000  1
 Zn  Zn1  1  0.33334  0.66667  0.63166  1
 Zn  Zn2  1  0.66666  0.33333  0.36834  1
