CIF file written using JARVIS-Tools package.
data_BaMg6Sb
_symmetry_space_group_name_H-M  'Amm2'
_cell_length_a       7.74087
_cell_length_b       7.74087
_cell_length_c       4.9035
_cell_angle_alpha    90
_cell_angle_beta     90
_cell_angle_gamma    129.354

_symmetry_Int_Tables_number  38
_chemical_formula_structural  BaMg6Sb
_chemical_formula_sum  BaMg6Sb
_cell_volume  227.19697246453364
_cell_formula_units_Z  1
loop_
  _symmetry_equiv_pos_site_id
 _symmetry_equiv_pos_as_xyz
 1  'x, y, z'
loop_
 _atom_site_type_symbol
 _atom_site_label
 _atom_site_symmetry_multiplicity
 _atom_site_fract_x
 _atom_site_fract_y
 _atom_site_fract_z
 _atom_site_fract_occupancy
 Ba  Ba1  1  0.20670  0.29330  0.25000  1
 Mg  Mg1  1  0.15818  0.78706  0.25000  1
 Mg  Mg2  1  0.71294  0.34182  0.25000  1
 Mg  Mg3  1  0.62875  0.87125  0.25000  1
 Mg  Mg4  1  0.30398  0.67656  0.75000  1
 Mg  Mg5  1  0.82344  0.19602  0.75000  1
 Mg  Mg6  1  0.78063  0.71937  0.75000  1
 Sb  Sb1  1  0.38538  0.11462  0.75000  1
