CIF file written using JARVIS-Tools package.
data_TiBeTe4
_symmetry_space_group_name_H-M  'F-43m'
_cell_length_a       6.33487
_cell_length_b       6.33487
_cell_length_c       6.33487
_cell_angle_alpha    60
_cell_angle_beta     60
_cell_angle_gamma    60

_symmetry_Int_Tables_number  216
_chemical_formula_structural  TiBeTe4
_chemical_formula_sum  TiBeTe4
_cell_volume  179.76219603969753
_cell_formula_units_Z  1
loop_
  _symmetry_equiv_pos_site_id
 _symmetry_equiv_pos_as_xyz
 1  'x, y, z'
loop_
 _atom_site_type_symbol
 _atom_site_label
 _atom_site_symmetry_multiplicity
 _atom_site_fract_x
 _atom_site_fract_y
 _atom_site_fract_z
 _atom_site_fract_occupancy
 Be  Be1  1  0.00000  0.00000  0.00000  1
 Te  Te1  1  0.12552  0.62483  0.62483  1
 Te  Te2  1  0.62483  0.62483  0.62483  1
 Te  Te3  1  0.62483  0.12552  0.62483  1
 Te  Te4  1  0.62483  0.62483  0.12552  1
 Ti  Ti1  1  0.25000  0.25000  0.25000  1
