CIF file written using JARVIS-Tools package.
data_AlO2
_symmetry_space_group_name_H-M  'Pnnm'
_cell_length_a       2.89955
_cell_length_b       4.02619
_cell_length_c       4.60468
_cell_angle_alpha    90
_cell_angle_beta     90
_cell_angle_gamma    90

_symmetry_Int_Tables_number  58
_chemical_formula_structural  AlO2
_chemical_formula_sum  Al2O4
_cell_volume  53.75567210347053
_cell_formula_units_Z  2
loop_
  _symmetry_equiv_pos_site_id
 _symmetry_equiv_pos_as_xyz
 1  'x, y, z'
loop_
 _atom_site_type_symbol
 _atom_site_label
 _atom_site_symmetry_multiplicity
 _atom_site_fract_x
 _atom_site_fract_y
 _atom_site_fract_z
 _atom_site_fract_occupancy
 Al  Al1  1  0.50000  0.50000  0.00000  1
 Al  Al2  1  0.00000  0.00000  0.50000  1
 O  O1  1  0.50000  0.26697  0.35626  1
 O  O2  1  0.00000  0.23303  0.85626  1
 O  O3  1  0.50000  0.73303  0.64374  1
 O  O4  1  0.00000  0.76697  0.14374  1
