CIF file written using JARVIS-Tools package.
data_Na2Be2Sn
_symmetry_space_group_name_H-M  'I4/mmm'
_cell_length_a       10.5029
_cell_length_b       10.5029
_cell_length_c       10.5029
_cell_angle_alpha    163.177
_cell_angle_beta     163.177
_cell_angle_gamma    23.8783

_symmetry_Int_Tables_number  139
_chemical_formula_structural  Na2Be2Sn
_chemical_formula_sum  Na2Be2Sn
_cell_volume  97.02165727740875
_cell_formula_units_Z  1
loop_
  _symmetry_equiv_pos_site_id
 _symmetry_equiv_pos_as_xyz
 1  'x, y, z'
loop_
 _atom_site_type_symbol
 _atom_site_label
 _atom_site_symmetry_multiplicity
 _atom_site_fract_x
 _atom_site_fract_y
 _atom_site_fract_z
 _atom_site_fract_occupancy
 Be  Be1  1  0.75000  0.25000  0.50000  1
 Be  Be2  1  0.25000  0.75000  0.50000  1
 Na  Na1  1  0.62168  0.62168  -0.00000  1
 Na  Na2  1  0.37832  0.37832  0.00000  1
 Sn  Sn1  1  0.00000  0.00000  0.00000  1
