CIF file written using JARVIS-Tools package.
data_Mg5Sn
_symmetry_space_group_name_H-M  'P-6m2'
_cell_length_a       3.27804
_cell_length_b       3.27804
_cell_length_c       15.268
_cell_angle_alpha    90
_cell_angle_beta     90
_cell_angle_gamma    120

_symmetry_Int_Tables_number  187
_chemical_formula_structural  Mg5Sn
_chemical_formula_sum  Mg5Sn
_cell_volume  142.08251383977677
_cell_formula_units_Z  1
loop_
  _symmetry_equiv_pos_site_id
 _symmetry_equiv_pos_as_xyz
 1  'x, y, z'
loop_
 _atom_site_type_symbol
 _atom_site_label
 _atom_site_symmetry_multiplicity
 _atom_site_fract_x
 _atom_site_fract_y
 _atom_site_fract_z
 _atom_site_fract_occupancy
 Mg  Mg1  1  0.00000  0.00000  0.16732  1
 Mg  Mg2  1  0.66667  0.33333  0.33310  1
 Mg  Mg3  1  0.00000  0.00000  0.50000  1
 Mg  Mg4  1  0.66667  0.33333  0.66690  1
 Mg  Mg5  1  0.00000  0.00000  0.83268  1
 Sn  Sn1  1  0.66667  0.33333  0.00000  1
