CIF file written using JARVIS-Tools package.
data_Mg6NbMo
_symmetry_space_group_name_H-M  'Amm2'
_cell_length_a       6.23012
_cell_length_b       5.70651
_cell_length_c       4.97086
_cell_angle_alpha    90
_cell_angle_beta     90
_cell_angle_gamma    117.257

_symmetry_Int_Tables_number  38
_chemical_formula_structural  Mg6NbMo
_chemical_formula_sum  Mg6NbMo
_cell_volume  157.1022808219569
_cell_formula_units_Z  1
loop_
  _symmetry_equiv_pos_site_id
 _symmetry_equiv_pos_as_xyz
 1  'x, y, z'
loop_
 _atom_site_type_symbol
 _atom_site_label
 _atom_site_symmetry_multiplicity
 _atom_site_fract_x
 _atom_site_fract_y
 _atom_site_fract_z
 _atom_site_fract_occupancy
 Mg  Mg1  1  0.65021  0.32492  0.25000  1
 Mg  Mg2  1  0.65021  0.82529  0.25000  1
 Mg  Mg3  1  0.33057  0.16273  0.75000  1
 Mg  Mg4  1  0.33057  0.66785  0.75000  1
 Mg  Mg5  1  0.86190  0.18095  0.75000  1
 Mg  Mg6  1  0.87301  0.68651  0.75000  1
 Mo  Mo1  1  0.15201  0.82601  0.25000  1
 Nb  Nb1  1  0.15150  0.32575  0.25000  1
