CIF file written using JARVIS-Tools package.
data_SrMg
_symmetry_space_group_name_H-M  'P3m1'
_cell_length_a       4.03451
_cell_length_b       4.03451
_cell_length_c       16.7421
_cell_angle_alpha    90
_cell_angle_beta     90
_cell_angle_gamma    120

_symmetry_Int_Tables_number  156
_chemical_formula_structural  SrMg
_chemical_formula_sum  Sr3Mg3
_cell_volume  236.00596053622795
_cell_formula_units_Z  3
loop_
  _symmetry_equiv_pos_site_id
 _symmetry_equiv_pos_as_xyz
 1  'x, y, z'
loop_
 _atom_site_type_symbol
 _atom_site_label
 _atom_site_symmetry_multiplicity
 _atom_site_fract_x
 _atom_site_fract_y
 _atom_site_fract_z
 _atom_site_fract_occupancy
 Mg  Mg1  1  0.66667  0.33333  0.82078  1
 Mg  Mg2  1  0.00000  0.00000  0.69327  1
 Mg  Mg3  1  0.66667  0.33333  0.15277  1
 Sr  Sr1  1  0.00000  0.00000  0.98668  1
 Sr  Sr2  1  0.66667  0.33333  0.52842  1
 Sr  Sr3  1  0.00000  0.00000  0.31807  1
