CIF file written using JARVIS-Tools package.
data_Th2Ag
_symmetry_space_group_name_H-M  'I4/mcm'
_cell_length_a       5.86832
_cell_length_b       6.13229
_cell_length_c       6.13229
_cell_angle_alpha    76.7653
_cell_angle_beta     61.414
_cell_angle_gamma    61.414

_symmetry_Int_Tables_number  140
_chemical_formula_structural  Th2Ag
_chemical_formula_sum  Th4Ag2
_cell_volume  170.1560034486373
_cell_formula_units_Z  2
loop_
  _symmetry_equiv_pos_site_id
 _symmetry_equiv_pos_as_xyz
 1  'x, y, z'
loop_
 _atom_site_type_symbol
 _atom_site_label
 _atom_site_symmetry_multiplicity
 _atom_site_fract_x
 _atom_site_fract_y
 _atom_site_fract_z
 _atom_site_fract_occupancy
 Ag  Ag1  1  0.75000  0.00000  0.00000  1
 Ag  Ag2  1  0.25000  0.00000  0.00000  1
 Th  Th1  1  0.34392  0.50000  0.81216  1
 Th  Th2  1  0.65608  0.50000  0.18784  1
 Th  Th3  1  0.84392  0.81216  0.50000  1
 Th  Th4  1  0.15608  0.18784  0.50000  1
