CIF file written using JARVIS-Tools package.
data_Mg6VNi
_symmetry_space_group_name_H-M  'Amm2'
_cell_length_a       6.10651
_cell_length_b       5.8589
_cell_length_c       4.72874
_cell_angle_alpha    90
_cell_angle_beta     90
_cell_angle_gamma    118.668

_symmetry_Int_Tables_number  38
_chemical_formula_structural  Mg6VNi
_chemical_formula_sum  Mg6VNi
_cell_volume  148.44363486171613
_cell_formula_units_Z  1
loop_
  _symmetry_equiv_pos_site_id
 _symmetry_equiv_pos_as_xyz
 1  'x, y, z'
loop_
 _atom_site_type_symbol
 _atom_site_label
 _atom_site_symmetry_multiplicity
 _atom_site_fract_x
 _atom_site_fract_y
 _atom_site_fract_z
 _atom_site_fract_occupancy
 Mg  Mg1  1  0.65138  0.32708  0.25000  1
 Mg  Mg2  1  0.65138  0.82429  0.25000  1
 Mg  Mg3  1  0.32827  0.16272  0.75000  1
 Mg  Mg4  1  0.32827  0.66556  0.75000  1
 Mg  Mg5  1  0.87217  0.18609  0.75000  1
 Mg  Mg6  1  0.85088  0.67544  0.75000  1
 Ni  Ni1  1  0.16979  0.33489  0.25000  1
 V  V1  1  0.14784  0.82392  0.25000  1
