CIF file written using JARVIS-Tools package.
data_PrCo2Ge2
_symmetry_space_group_name_H-M  'I4/mmm'
_cell_length_a       4.0474
_cell_length_b       4.0474
_cell_length_c       5.90033
_cell_angle_alpha    110.058
_cell_angle_beta     110.058
_cell_angle_gamma    90.0001

_symmetry_Int_Tables_number  139
_chemical_formula_structural  PrCo2Ge2
_chemical_formula_sum  PrCo2Ge2
_cell_volume  84.52445727457105
_cell_formula_units_Z  1
loop_
  _symmetry_equiv_pos_site_id
 _symmetry_equiv_pos_as_xyz
 1  'x, y, z'
loop_
 _atom_site_type_symbol
 _atom_site_label
 _atom_site_symmetry_multiplicity
 _atom_site_fract_x
 _atom_site_fract_y
 _atom_site_fract_z
 _atom_site_fract_occupancy
 Co  Co1  1  0.75000  0.25000  0.50000  1
 Co  Co2  1  0.25000  0.75000  0.50000  1
 Ge  Ge1  1  0.36601  0.36601  0.73202  1
 Ge  Ge2  1  0.63399  0.63399  0.26798  1
 Pr  Pr1  1  0.00000  0.00000  0.00000  1
