CIF file written using JARVIS-Tools package.
data_HoSi2Cu2
_symmetry_space_group_name_H-M  'I4/mmm'
_cell_length_a       3.97872
_cell_length_b       3.97872
_cell_length_c       5.73516
_cell_angle_alpha    110.296
_cell_angle_beta     110.296
_cell_angle_gamma    90

_symmetry_Int_Tables_number  139
_chemical_formula_structural  HoSi2Cu2
_chemical_formula_sum  HoSi2Cu2
_cell_volume  79.1143883425042
_cell_formula_units_Z  1
loop_
  _symmetry_equiv_pos_site_id
 _symmetry_equiv_pos_as_xyz
 1  'x, y, z'
loop_
 _atom_site_type_symbol
 _atom_site_label
 _atom_site_symmetry_multiplicity
 _atom_site_fract_x
 _atom_site_fract_y
 _atom_site_fract_z
 _atom_site_fract_occupancy
 Cu  Cu1  1  0.25000  0.75000  0.50000  1
 Cu  Cu2  1  0.75000  0.25000  0.50000  1
 Ho  Ho1  1  0.00000  0.00000  0.00000  1
 Si  Si1  1  0.61735  0.61735  0.23469  1
 Si  Si2  1  0.38265  0.38265  0.76531  1
