CIF file written using JARVIS-Tools package.
data_TiCo2
_symmetry_space_group_name_H-M  'Fd-3m'
_cell_length_a       4.68338
_cell_length_b       4.68338
_cell_length_c       4.68338
_cell_angle_alpha    60
_cell_angle_beta     60
_cell_angle_gamma    60

_symmetry_Int_Tables_number  227
_chemical_formula_structural  TiCo2
_chemical_formula_sum  Ti2Co4
_cell_volume  72.63805191587316
_cell_formula_units_Z  2
loop_
  _symmetry_equiv_pos_site_id
 _symmetry_equiv_pos_as_xyz
 1  'x, y, z'
loop_
 _atom_site_type_symbol
 _atom_site_label
 _atom_site_symmetry_multiplicity
 _atom_site_fract_x
 _atom_site_fract_y
 _atom_site_fract_z
 _atom_site_fract_occupancy
 Co  Co1  1  0.50000  0.50000  0.00000  1
 Co  Co2  1  0.50000  0.00000  0.50000  1
 Co  Co3  1  -0.00000  0.50000  0.50000  1
 Co  Co4  1  0.50000  0.50000  0.50000  1
 Ti  Ti1  1  0.12500  0.12500  0.12500  1
 Ti  Ti2  1  0.87500  0.87500  0.87500  1
