CIF file written using JARVIS-Tools package.
data_SnHgO3
_symmetry_space_group_name_H-M  'R-3c'
_cell_length_a       5.74213
_cell_length_b       5.74213
_cell_length_c       5.74213
_cell_angle_alpha    59.0169
_cell_angle_beta     59.017
_cell_angle_gamma    59.0169

_symmetry_Int_Tables_number  167
_chemical_formula_structural  SnHgO3
_chemical_formula_sum  Sn2Hg2O6
_cell_volume  130.87467693526773
_cell_formula_units_Z  2
loop_
  _symmetry_equiv_pos_site_id
 _symmetry_equiv_pos_as_xyz
 1  'x, y, z'
loop_
 _atom_site_type_symbol
 _atom_site_label
 _atom_site_symmetry_multiplicity
 _atom_site_fract_x
 _atom_site_fract_y
 _atom_site_fract_z
 _atom_site_fract_occupancy
 Hg  Hg1  1  0.75000  0.75000  0.75000  1
 Hg  Hg2  1  0.25000  0.25000  0.25000  1
 O  O1  1  0.14599  0.75000  0.35401  1
 O  O2  1  0.75000  0.35401  0.14599  1
 O  O3  1  0.35401  0.14599  0.75000  1
 O  O4  1  0.85401  0.25000  0.64599  1
 O  O5  1  0.64599  0.85401  0.25000  1
 O  O6  1  0.25000  0.64599  0.85401  1
 Sn  Sn1  1  0.50000  0.50000  0.50000  1
 Sn  Sn2  1  0.00000  0.00000  0.00000  1
