CIF file written using JARVIS-Tools package.
data_VPd3
_symmetry_space_group_name_H-M  'I4/mmm'
_cell_length_a       3.86714
_cell_length_b       3.86715
_cell_length_c       4.77003
_cell_angle_alpha    113.914
_cell_angle_beta     113.913
_cell_angle_gamma    90.0001

_symmetry_Int_Tables_number  139
_chemical_formula_structural  VPd3
_chemical_formula_sum  VPd3
_cell_volume  58.449565525726875
_cell_formula_units_Z  1
loop_
  _symmetry_equiv_pos_site_id
 _symmetry_equiv_pos_as_xyz
 1  'x, y, z'
loop_
 _atom_site_type_symbol
 _atom_site_label
 _atom_site_symmetry_multiplicity
 _atom_site_fract_x
 _atom_site_fract_y
 _atom_site_fract_z
 _atom_site_fract_occupancy
 Pd  Pd1  1  0.25000  0.75000  0.50000  1
 Pd  Pd2  1  0.75000  0.25000  0.50000  1
 Pd  Pd3  1  0.50000  0.50000  0.00000  1
 V  V1  1  0.00000  0.00000  0.00000  1
