CIF file written using JARVIS-Tools package.
data_TaV2
_symmetry_space_group_name_H-M  'Fd-3m'
_cell_length_a       5.03278
_cell_length_b       5.03278
_cell_length_c       5.03278
_cell_angle_alpha    60
_cell_angle_beta     60
_cell_angle_gamma    60

_symmetry_Int_Tables_number  227
_chemical_formula_structural  TaV2
_chemical_formula_sum  Ta2V4
_cell_volume  90.13766899963625
_cell_formula_units_Z  2
loop_
  _symmetry_equiv_pos_site_id
 _symmetry_equiv_pos_as_xyz
 1  'x, y, z'
loop_
 _atom_site_type_symbol
 _atom_site_label
 _atom_site_symmetry_multiplicity
 _atom_site_fract_x
 _atom_site_fract_y
 _atom_site_fract_z
 _atom_site_fract_occupancy
 Ta  Ta1  1  0.75000  0.75000  0.75000  1
 Ta  Ta2  1  0.00000  0.00000  0.00000  1
 V  V1  1  0.87500  0.37500  0.37500  1
 V  V2  1  0.37500  0.87500  0.37500  1
 V  V3  1  0.37500  0.37500  0.87500  1
 V  V4  1  0.37500  0.37500  0.37500  1
