CIF file written using JARVIS-Tools package.
data_BaPd5
_symmetry_space_group_name_H-M  'P6/mmm'
_cell_length_a       5.59054
_cell_length_b       5.59054
_cell_length_c       4.38557
_cell_angle_alpha    90
_cell_angle_beta     90
_cell_angle_gamma    120

_symmetry_Int_Tables_number  191
_chemical_formula_structural  BaPd5
_chemical_formula_sum  BaPd5
_cell_volume  118.70368363699664
_cell_formula_units_Z  1
loop_
  _symmetry_equiv_pos_site_id
 _symmetry_equiv_pos_as_xyz
 1  'x, y, z'
loop_
 _atom_site_type_symbol
 _atom_site_label
 _atom_site_symmetry_multiplicity
 _atom_site_fract_x
 _atom_site_fract_y
 _atom_site_fract_z
 _atom_site_fract_occupancy
 Ba  Ba1  1  0.00000  0.00000  0.00000  1
 Pd  Pd1  1  -0.00000  0.50000  0.50000  1
 Pd  Pd2  1  0.33333  0.66667  0.00000  1
 Pd  Pd3  1  0.66667  0.33333  0.00000  1
 Pd  Pd4  1  0.50000  -0.00000  0.50000  1
 Pd  Pd5  1  0.50000  0.50000  0.50000  1
