CIF file written using JARVIS-Tools package.
data_SrCa3
_symmetry_space_group_name_H-M  'Fm-3m'
_cell_length_a       6.24076
_cell_length_b       6.24077
_cell_length_c       6.24077
_cell_angle_alpha    60
_cell_angle_beta     60
_cell_angle_gamma    60.0001

_symmetry_Int_Tables_number  225
_chemical_formula_structural  SrCa3
_chemical_formula_sum  SrCa3
_cell_volume  171.86964892915267
_cell_formula_units_Z  1
loop_
  _symmetry_equiv_pos_site_id
 _symmetry_equiv_pos_as_xyz
 1  'x, y, z'
loop_
 _atom_site_type_symbol
 _atom_site_label
 _atom_site_symmetry_multiplicity
 _atom_site_fract_x
 _atom_site_fract_y
 _atom_site_fract_z
 _atom_site_fract_occupancy
 Ca  Ca1  1  0.25000  0.25000  0.25000  1
 Ca  Ca2  1  0.75000  0.75000  0.75000  1
 Ca  Ca3  1  0.50000  0.50000  0.50000  1
 Sr  Sr1  1  0.00000  0.00000  0.00000  1
