CIF file written using JARVIS-Tools package.
data_YbTmSe2
_symmetry_space_group_name_H-M  'R-3m'
_cell_length_a       7.08228
_cell_length_b       7.08228
_cell_length_c       7.08228
_cell_angle_alpha    33.0837
_cell_angle_beta     33.0837
_cell_angle_gamma    33.0837

_symmetry_Int_Tables_number  166
_chemical_formula_structural  YbTmSe2
_chemical_formula_sum  YbTmSe2
_cell_volume  94.20952042710502
_cell_formula_units_Z  1
loop_
  _symmetry_equiv_pos_site_id
 _symmetry_equiv_pos_as_xyz
 1  'x, y, z'
loop_
 _atom_site_type_symbol
 _atom_site_label
 _atom_site_symmetry_multiplicity
 _atom_site_fract_x
 _atom_site_fract_y
 _atom_site_fract_z
 _atom_site_fract_occupancy
 Se  Se1  1  0.24832  0.24832  0.24832  1
 Se  Se2  1  0.75168  0.75168  0.75168  1
 Tm  Tm1  1  0.50000  0.50000  0.50000  1
 Yb  Yb1  1  0.00000  0.00000  0.00000  1
