CIF file written using JARVIS-Tools package.
data_CaMg5
_symmetry_space_group_name_H-M  'P-6m2'
_cell_length_a       3.36804
_cell_length_b       3.36804
_cell_length_c       15.7483
_cell_angle_alpha    90
_cell_angle_beta     90
_cell_angle_gamma    120

_symmetry_Int_Tables_number  187
_chemical_formula_structural  CaMg5
_chemical_formula_sum  CaMg5
_cell_volume  154.71034393894118
_cell_formula_units_Z  1
loop_
  _symmetry_equiv_pos_site_id
 _symmetry_equiv_pos_as_xyz
 1  'x, y, z'
loop_
 _atom_site_type_symbol
 _atom_site_label
 _atom_site_symmetry_multiplicity
 _atom_site_fract_x
 _atom_site_fract_y
 _atom_site_fract_z
 _atom_site_fract_occupancy
 Ca  Ca1  1  0.00000  0.00000  0.00000  1
 Mg  Mg1  1  0.66667  0.33333  0.82036  1
 Mg  Mg2  1  0.00000  0.00000  0.65968  1
 Mg  Mg3  1  0.66667  0.33333  0.50000  1
 Mg  Mg4  1  0.00000  0.00000  0.34032  1
 Mg  Mg5  1  0.66667  0.33333  0.17964  1
