CIF file written using JARVIS-Tools package.
data_Mn6GaGe
_symmetry_space_group_name_H-M  'P-6m2'
_cell_length_a       5.14032
_cell_length_b       5.14032
_cell_length_c       4.15219
_cell_angle_alpha    90
_cell_angle_beta     90
_cell_angle_gamma    120

_symmetry_Int_Tables_number  187
_chemical_formula_structural  Mn6GaGe
_chemical_formula_sum  Mn6GaGe
_cell_volume  95.0141019964617
_cell_formula_units_Z  1
loop_
  _symmetry_equiv_pos_site_id
 _symmetry_equiv_pos_as_xyz
 1  'x, y, z'
loop_
 _atom_site_type_symbol
 _atom_site_label
 _atom_site_symmetry_multiplicity
 _atom_site_fract_x
 _atom_site_fract_y
 _atom_site_fract_z
 _atom_site_fract_occupancy
 Ga  Ga1  1  0.33333  0.66667  0.50000  1
 Ge  Ge1  1  0.66667  0.33333  0.00000  1
 Mn  Mn1  1  0.67852  0.83926  0.00000  1
 Mn  Mn2  1  0.16074  0.83926  0.00000  1
 Mn  Mn3  1  0.16074  0.32148  0.00000  1
 Mn  Mn4  1  0.31785  0.15893  0.50000  1
 Mn  Mn5  1  0.84107  0.15893  0.50000  1
 Mn  Mn6  1  0.84107  0.68215  0.50000  1
