CIF file written using JARVIS-Tools package.
data_CrFe3As2
_symmetry_space_group_name_H-M  'P-4m2'
_cell_length_a       3.64905
_cell_length_b       3.64905
_cell_length_c       5.94755
_cell_angle_alpha    90
_cell_angle_beta     90
_cell_angle_gamma    90

_symmetry_Int_Tables_number  115
_chemical_formula_structural  CrFe3As2
_chemical_formula_sum  CrFe3As2
_cell_volume  79.19502414726402
_cell_formula_units_Z  1
loop_
  _symmetry_equiv_pos_site_id
 _symmetry_equiv_pos_as_xyz
 1  'x, y, z'
loop_
 _atom_site_type_symbol
 _atom_site_label
 _atom_site_symmetry_multiplicity
 _atom_site_fract_x
 _atom_site_fract_y
 _atom_site_fract_z
 _atom_site_fract_occupancy
 As  As1  1  0.50000  0.00000  0.71827  1
 As  As2  1  0.00000  0.50000  0.28173  1
 Cr  Cr1  1  0.50000  0.50000  0.00000  1
 Fe  Fe1  1  0.00000  0.00000  0.00000  1
 Fe  Fe2  1  0.50000  0.00000  0.31180  1
 Fe  Fe3  1  0.00000  0.50000  0.68820  1
