CIF file written using JARVIS-Tools package.
data_U3Al3CoRu2
_symmetry_space_group_name_H-M  'P-62m'
_cell_length_a       6.80698
_cell_length_b       6.80698
_cell_length_c       4.02997
_cell_angle_alpha    90
_cell_angle_beta     90
_cell_angle_gamma    120

_symmetry_Int_Tables_number  189
_chemical_formula_structural  U3Al3CoRu2
_chemical_formula_sum  U3Al3CoRu2
_cell_volume  161.71189986698903
_cell_formula_units_Z  1
loop_
  _symmetry_equiv_pos_site_id
 _symmetry_equiv_pos_as_xyz
 1  'x, y, z'
loop_
 _atom_site_type_symbol
 _atom_site_label
 _atom_site_symmetry_multiplicity
 _atom_site_fract_x
 _atom_site_fract_y
 _atom_site_fract_z
 _atom_site_fract_occupancy
 Al  Al1  1  -0.00000  0.76933  0.00000  1
 Al  Al2  1  0.23067  0.23067  0.00000  1
 Al  Al3  1  0.76933  -0.00000  0.00000  1
 Co  Co1  1  0.00000  0.00000  0.50000  1
 Ru  Ru1  1  0.33333  0.66667  0.00000  1
 Ru  Ru2  1  0.66667  0.33333  0.00000  1
 U  U1  1  0.00000  0.41485  0.50000  1
 U  U2  1  0.58515  0.58515  0.50000  1
 U  U3  1  0.41485  0.00000  0.50000  1
