CIF file written using JARVIS-Tools package.
data_HgPd
_symmetry_space_group_name_H-M  'P4/mmm'
_cell_length_a       3.81477
_cell_length_b       4.34712
_cell_length_c       4.34712
_cell_angle_alpha    90
_cell_angle_beta     90
_cell_angle_gamma    90

_symmetry_Int_Tables_number  123
_chemical_formula_structural  HgPd
_chemical_formula_sum  Hg2Pd2
_cell_volume  72.08937042926941
_cell_formula_units_Z  2
loop_
  _symmetry_equiv_pos_site_id
 _symmetry_equiv_pos_as_xyz
 1  'x, y, z'
loop_
 _atom_site_type_symbol
 _atom_site_label
 _atom_site_symmetry_multiplicity
 _atom_site_fract_x
 _atom_site_fract_y
 _atom_site_fract_z
 _atom_site_fract_occupancy
 Hg  Hg1  1  0.00000  0.00000  0.00000  1
 Hg  Hg2  1  0.00000  0.50000  0.50000  1
 Pd  Pd1  1  0.50000  0.00000  0.50000  1
 Pd  Pd2  1  0.50000  0.50000  0.00000  1
