CIF file written using JARVIS-Tools package.
data_Nb6SiSn
_symmetry_space_group_name_H-M  'Pm-3'
_cell_length_a       5.24191
_cell_length_b       5.24191
_cell_length_c       5.24191
_cell_angle_alpha    90
_cell_angle_beta     90
_cell_angle_gamma    90

_symmetry_Int_Tables_number  200
_chemical_formula_structural  Nb6SiSn
_chemical_formula_sum  Nb6SiSn
_cell_volume  144.03494290369477
_cell_formula_units_Z  1
loop_
  _symmetry_equiv_pos_site_id
 _symmetry_equiv_pos_as_xyz
 1  'x, y, z'
loop_
 _atom_site_type_symbol
 _atom_site_label
 _atom_site_symmetry_multiplicity
 _atom_site_fract_x
 _atom_site_fract_y
 _atom_site_fract_z
 _atom_site_fract_occupancy
 Nb  Nb1  1  0.00000  0.50000  0.75755  1
 Nb  Nb2  1  0.50000  0.24245  0.00000  1
 Nb  Nb3  1  0.75755  0.00000  0.50000  1
 Nb  Nb4  1  0.00000  0.50000  0.24245  1
 Nb  Nb5  1  0.50000  0.75755  0.00000  1
 Nb  Nb6  1  0.24245  0.00000  0.50000  1
 Si  Si1  1  0.00000  0.00000  0.00000  1
 Sn  Sn1  1  0.50000  0.50000  0.50000  1
