CIF file written using JARVIS-Tools package.
data_VO2
_symmetry_space_group_name_H-M  'P4_2/mnm'
_cell_length_a       2.84839
_cell_length_b       4.57779
_cell_length_c       4.57809
_cell_angle_alpha    90
_cell_angle_beta     90
_cell_angle_gamma    90

_symmetry_Int_Tables_number  136
_chemical_formula_structural  VO2
_chemical_formula_sum  V2O4
_cell_volume  59.695231903771514
_cell_formula_units_Z  2
loop_
  _symmetry_equiv_pos_site_id
 _symmetry_equiv_pos_as_xyz
 1  'x, y, z'
loop_
 _atom_site_type_symbol
 _atom_site_label
 _atom_site_symmetry_multiplicity
 _atom_site_fract_x
 _atom_site_fract_y
 _atom_site_fract_z
 _atom_site_fract_occupancy
 O  O1  1  0.50000  0.29944  0.29965  1
 O  O2  1  0.50000  0.70056  0.70035  1
 O  O3  1  0.00000  0.20056  0.79965  1
 O  O4  1  0.00000  0.79944  0.20035  1
 V  V1  1  0.50000  0.00000  0.00000  1
 V  V2  1  0.00000  0.50000  0.50000  1
