CIF file written using JARVIS-Tools package.
data_GaAgS2
_symmetry_space_group_name_H-M  'I-42d'
_cell_length_a       5.76181
_cell_length_b       5.76181
_cell_length_c       6.65331
_cell_angle_alpha    115.658
_cell_angle_beta     115.658
_cell_angle_gamma    90

_symmetry_Int_Tables_number  122
_chemical_formula_structural  GaAgS2
_chemical_formula_sum  Ga2Ag2S4
_cell_volume  174.62288595407398
_cell_formula_units_Z  2
loop_
  _symmetry_equiv_pos_site_id
 _symmetry_equiv_pos_as_xyz
 1  'x, y, z'
loop_
 _atom_site_type_symbol
 _atom_site_label
 _atom_site_symmetry_multiplicity
 _atom_site_fract_x
 _atom_site_fract_y
 _atom_site_fract_z
 _atom_site_fract_occupancy
 Ag  Ag1  1  0.25000  0.75000  0.50000  1
 Ag  Ag2  1  0.00000  0.00000  0.00000  1
 Ga  Ga1  1  0.50000  0.50000  -0.00000  1
 Ga  Ga2  1  0.75000  0.25000  0.50000  1
 S  S1  1  0.83902  0.87500  0.25000  1
 S  S2  1  0.62500  0.16098  0.75000  1
 S  S3  1  0.41098  0.37500  0.25000  1
 S  S4  1  0.12500  0.58902  0.75000  1
