CIF file written using JARVIS-Tools package.
data_CdCoCu3Se4
_symmetry_space_group_name_H-M  'P-43m'
_cell_length_a       5.79092
_cell_length_b       5.79092
_cell_length_c       5.79092
_cell_angle_alpha    90
_cell_angle_beta     90
_cell_angle_gamma    90

_symmetry_Int_Tables_number  215
_chemical_formula_structural  CdCoCu3Se4
_chemical_formula_sum  CdCoCu3Se4
_cell_volume  194.1970556576242
_cell_formula_units_Z  1
loop_
  _symmetry_equiv_pos_site_id
 _symmetry_equiv_pos_as_xyz
 1  'x, y, z'
loop_
 _atom_site_type_symbol
 _atom_site_label
 _atom_site_symmetry_multiplicity
 _atom_site_fract_x
 _atom_site_fract_y
 _atom_site_fract_z
 _atom_site_fract_occupancy
 Cd  Cd1  1  0.50000  0.50000  0.50000  1
 Co  Co1  1  0.00000  0.00000  0.00000  1
 Cu  Cu1  1  0.00000  0.50000  0.00000  1
 Cu  Cu2  1  0.00000  0.00000  0.50000  1
 Cu  Cu3  1  0.50000  0.00000  0.00000  1
 Se  Se1  1  0.23633  0.23633  0.23633  1
 Se  Se2  1  0.76367  0.76367  0.23633  1
 Se  Se3  1  0.23633  0.76367  0.76367  1
 Se  Se4  1  0.76367  0.23633  0.76367  1
