CIF file written using JARVIS-Tools package.
data_Al2ZnTe4
_symmetry_space_group_name_H-M  'I-4'
_cell_length_a       6.05122
_cell_length_b       6.05122
_cell_length_c       7.34391
_cell_angle_alpha    114.33
_cell_angle_beta     114.33
_cell_angle_gamma    90

_symmetry_Int_Tables_number  82
_chemical_formula_structural  Al2ZnTe4
_chemical_formula_sum  Al2ZnTe4
_cell_volume  218.5547177350365
_cell_formula_units_Z  1
loop_
  _symmetry_equiv_pos_site_id
 _symmetry_equiv_pos_as_xyz
 1  'x, y, z'
loop_
 _atom_site_type_symbol
 _atom_site_label
 _atom_site_symmetry_multiplicity
 _atom_site_fract_x
 _atom_site_fract_y
 _atom_site_fract_z
 _atom_site_fract_occupancy
 Al  Al1  1  0.25000  0.75000  0.50000  1
 Al  Al2  1  0.50000  0.50000  0.00000  1
 Te  Te1  1  0.40117  0.37107  0.26755  1
 Te  Te2  1  0.10353  0.59883  0.73245  1
 Te  Te3  1  0.62893  0.13363  0.73245  1
 Te  Te4  1  0.86637  0.89647  0.26755  1
 Zn  Zn1  1  0.00000  0.00000  0.00000  1
