CIF file written using JARVIS-Tools package.
data_Na3Mg
_symmetry_space_group_name_H-M  'P6_3/mmc'
_cell_length_a       7.16881
_cell_length_b       7.16881
_cell_length_c       5.82244
_cell_angle_alpha    90
_cell_angle_beta     90
_cell_angle_gamma    120

_symmetry_Int_Tables_number  194
_chemical_formula_structural  Na3Mg
_chemical_formula_sum  Na6Mg2
_cell_volume  259.1370278113147
_cell_formula_units_Z  2
loop_
  _symmetry_equiv_pos_site_id
 _symmetry_equiv_pos_as_xyz
 1  'x, y, z'
loop_
 _atom_site_type_symbol
 _atom_site_label
 _atom_site_symmetry_multiplicity
 _atom_site_fract_x
 _atom_site_fract_y
 _atom_site_fract_z
 _atom_site_fract_occupancy
 Mg  Mg1  1  0.66667  0.33333  0.25000  1
 Mg  Mg2  1  0.33333  0.66667  0.75000  1
 Na  Na1  1  0.17068  0.34135  0.25000  1
 Na  Na2  1  0.17068  0.82932  0.25000  1
 Na  Na3  1  0.65865  0.82932  0.25000  1
 Na  Na4  1  0.34135  0.17068  0.75000  1
 Na  Na5  1  0.82932  0.17068  0.75000  1
 Na  Na6  1  0.82932  0.65865  0.75000  1
