CIF file written using JARVIS-Tools package.
data_SrSb2Pd2
_symmetry_space_group_name_H-M  'I4/mmm'
_cell_length_a       4.69273
_cell_length_b       4.69273
_cell_length_c       6.43338
_cell_angle_alpha    111.39
_cell_angle_beta     111.39
_cell_angle_gamma    90

_symmetry_Int_Tables_number  139
_chemical_formula_structural  SrSb2Pd2
_chemical_formula_sum  SrSb2Pd2
_cell_volume  121.37441187512115
_cell_formula_units_Z  1
loop_
  _symmetry_equiv_pos_site_id
 _symmetry_equiv_pos_as_xyz
 1  'x, y, z'
loop_
 _atom_site_type_symbol
 _atom_site_label
 _atom_site_symmetry_multiplicity
 _atom_site_fract_x
 _atom_site_fract_y
 _atom_site_fract_z
 _atom_site_fract_occupancy
 Pd  Pd1  1  0.25000  0.75000  0.50000  1
 Pd  Pd2  1  0.75000  0.25000  0.50000  1
 Sb  Sb1  1  0.36786  0.36786  0.73571  1
 Sb  Sb2  1  0.63214  0.63214  0.26429  1
 Sr  Sr1  1  0.00000  0.00000  0.00000  1
