CIF file written using JARVIS-Tools package.
data_LaMnAlNi3
_symmetry_space_group_name_H-M  'P-6m2'
_cell_length_a       5.2935
_cell_length_b       5.2935
_cell_length_c       3.88051
_cell_angle_alpha    90
_cell_angle_beta     90
_cell_angle_gamma    120

_symmetry_Int_Tables_number  187
_chemical_formula_structural  LaMnAlNi3
_chemical_formula_sum  LaMnAlNi3
_cell_volume  94.16850072835445
_cell_formula_units_Z  1
loop_
  _symmetry_equiv_pos_site_id
 _symmetry_equiv_pos_as_xyz
 1  'x, y, z'
loop_
 _atom_site_type_symbol
 _atom_site_label
 _atom_site_symmetry_multiplicity
 _atom_site_fract_x
 _atom_site_fract_y
 _atom_site_fract_z
 _atom_site_fract_occupancy
 Al  Al1  1  0.33333  0.66667  0.00000  1
 La  La1  1  0.00000  0.00000  0.00000  1
 Mn  Mn1  1  0.66667  0.33333  0.00000  1
 Ni  Ni1  1  0.50120  0.00240  0.50000  1
 Ni  Ni2  1  0.99760  0.49880  0.50000  1
 Ni  Ni3  1  0.50120  0.49880  0.50000  1
