CIF file written using JARVIS-Tools package.
data_Tb2Co3Ni
_symmetry_space_group_name_H-M  'R-3m'
_cell_length_a       4.9781
_cell_length_b       4.9781
_cell_length_c       5.12853
_cell_angle_alpha    90
_cell_angle_beta     60.9656
_cell_angle_gamma    120

_symmetry_Int_Tables_number  166
_chemical_formula_structural  Tb2Co3Ni
_chemical_formula_sum  Tb2Co3Ni
_cell_volume  91.1573528980997
_cell_formula_units_Z  1
loop_
  _symmetry_equiv_pos_site_id
 _symmetry_equiv_pos_as_xyz
 1  'x, y, z'
loop_
 _atom_site_type_symbol
 _atom_site_label
 _atom_site_symmetry_multiplicity
 _atom_site_fract_x
 _atom_site_fract_y
 _atom_site_fract_z
 _atom_site_fract_occupancy
 Co  Co1  1  0.25000  0.37500  0.37500  1
 Co  Co2  1  0.25000  0.87500  0.37500  1
 Co  Co3  1  0.75000  0.37500  0.37500  1
 Ni  Ni1  1  0.75000  0.37500  0.87500  1
 Tb  Tb1  1  0.50579  0.75289  0.74132  1
 Tb  Tb2  1  0.99421  0.99711  0.00868  1
