CIF file written using JARVIS-Tools package.
data_Hf3Sc
_symmetry_space_group_name_H-M  'P6_3/mmc'
_cell_length_a       6.39244
_cell_length_b       6.39244
_cell_length_c       5.01663
_cell_angle_alpha    90
_cell_angle_beta     90
_cell_angle_gamma    120

_symmetry_Int_Tables_number  194
_chemical_formula_structural  Hf3Sc
_chemical_formula_sum  Hf6Sc2
_cell_volume  177.53200277441275
_cell_formula_units_Z  2
loop_
  _symmetry_equiv_pos_site_id
 _symmetry_equiv_pos_as_xyz
 1  'x, y, z'
loop_
 _atom_site_type_symbol
 _atom_site_label
 _atom_site_symmetry_multiplicity
 _atom_site_fract_x
 _atom_site_fract_y
 _atom_site_fract_z
 _atom_site_fract_occupancy
 Hf  Hf1  1  0.16645  0.33290  0.25000  1
 Hf  Hf2  1  0.66710  0.83355  0.25000  1
 Hf  Hf3  1  0.16645  0.83355  0.25000  1
 Hf  Hf4  1  0.83355  0.66710  0.75000  1
 Hf  Hf5  1  0.33290  0.16645  0.75000  1
 Hf  Hf6  1  0.83355  0.16645  0.75000  1
 Sc  Sc1  1  0.33333  0.66667  0.75000  1
 Sc  Sc2  1  0.66667  0.33333  0.25000  1
