CIF file written using JARVIS-Tools package.
data_SrRhO3
_symmetry_space_group_name_H-M  'Imma'
_cell_length_a       5.58469
_cell_length_b       5.58468
_cell_length_c       5.58468
_cell_angle_alpha    120.68
_cell_angle_beta     118.765
_cell_angle_gamma    90.489

_symmetry_Int_Tables_number  74
_chemical_formula_structural  SrRhO3
_chemical_formula_sum  Sr2Rh2O6
_cell_volume  123.63212648642077
_cell_formula_units_Z  2
loop_
  _symmetry_equiv_pos_site_id
 _symmetry_equiv_pos_as_xyz
 1  'x, y, z'
loop_
 _atom_site_type_symbol
 _atom_site_label
 _atom_site_symmetry_multiplicity
 _atom_site_fract_x
 _atom_site_fract_y
 _atom_site_fract_z
 _atom_site_fract_occupancy
 O  O1  1  0.29726  0.29726  0.50000  1
 O  O2  1  0.70274  0.70274  0.50000  1
 O  O3  1  0.70274  0.20274  0.00000  1
 O  O4  1  0.29726  0.79726  -0.00000  1
 O  O5  1  0.83158  0.75000  0.08158  1
 O  O6  1  0.16842  0.25000  0.91842  1
 Rh  Rh1  1  0.50000  0.50000  -0.00000  1
 Rh  Rh2  1  0.00000  0.00000  0.00000  1
 Sr  Sr1  1  0.25657  0.75000  0.50657  1
 Sr  Sr2  1  0.74343  0.25000  0.49343  1
