CIF file written using JARVIS-Tools package.
data_YBi3
_symmetry_space_group_name_H-M  'I4/mmm'
_cell_length_a       6.49239
_cell_length_b       6.49238
_cell_length_c       6.49239
_cell_angle_alpha    137.899
_cell_angle_beta     137.899
_cell_angle_gamma    61.0579

_symmetry_Int_Tables_number  139
_chemical_formula_structural  YBi3
_chemical_formula_sum  YBi3
_cell_volume  121.6513254651442
_cell_formula_units_Z  1
loop_
  _symmetry_equiv_pos_site_id
 _symmetry_equiv_pos_as_xyz
 1  'x, y, z'
loop_
 _atom_site_type_symbol
 _atom_site_label
 _atom_site_symmetry_multiplicity
 _atom_site_fract_x
 _atom_site_fract_y
 _atom_site_fract_z
 _atom_site_fract_occupancy
 Bi  Bi1  1  0.75000  0.25000  0.50000  1
 Bi  Bi2  1  0.25000  0.75000  0.50000  1
 Bi  Bi3  1  0.50000  0.50000  0.00000  1
 Y  Y1  1  0.00000  0.00000  0.00000  1
