CIF file written using JARVIS-Tools package.
data_ZrTiTe4
_symmetry_space_group_name_H-M  'P2/m'
_cell_length_a       3.88937
_cell_length_b       6.66004
_cell_length_c       6.74874
_cell_angle_alpha    90.0017
_cell_angle_beta     90
_cell_angle_gamma    90

_symmetry_Int_Tables_number  10
_chemical_formula_structural  ZrTiTe4
_chemical_formula_sum  ZrTiTe4
_cell_volume  174.81499224559644
_cell_formula_units_Z  1
loop_
  _symmetry_equiv_pos_site_id
 _symmetry_equiv_pos_as_xyz
 1  'x, y, z'
loop_
 _atom_site_type_symbol
 _atom_site_label
 _atom_site_symmetry_multiplicity
 _atom_site_fract_x
 _atom_site_fract_y
 _atom_site_fract_z
 _atom_site_fract_occupancy
 Te  Te1  1  0.50000  0.74166  0.84355  1
 Te  Te2  1  0.50000  0.25834  0.15645  1
 Te  Te3  1  0.00000  0.73194  0.32330  1
 Te  Te4  1  0.00000  0.26806  0.67670  1
 Ti  Ti1  1  0.00000  0.00000  0.00000  1
 Zr  Zr1  1  0.50000  -0.00000  0.50000  1
