CIF file written using JARVIS-Tools package.
data_Rb2PuO4
_symmetry_space_group_name_H-M  'I4/mmm'
_cell_length_a       7.60329
_cell_length_b       7.60329
_cell_length_c       7.6033
_cell_angle_alpha    146.959
_cell_angle_beta     146.959
_cell_angle_gamma    47.4241

_symmetry_Int_Tables_number  139
_chemical_formula_structural  Rb2PuO4
_chemical_formula_sum  Rb2PuO4
_cell_volume  130.16264073050073
_cell_formula_units_Z  1
loop_
  _symmetry_equiv_pos_site_id
 _symmetry_equiv_pos_as_xyz
 1  'x, y, z'
loop_
 _atom_site_type_symbol
 _atom_site_label
 _atom_site_symmetry_multiplicity
 _atom_site_fract_x
 _atom_site_fract_y
 _atom_site_fract_z
 _atom_site_fract_occupancy
 O  O1  1  0.13910  0.13910  0.00000  1
 O  O2  1  0.86090  0.86090  -0.00000  1
 O  O3  1  0.50000  0.00000  0.50000  1
 O  O4  1  -0.00000  0.50000  0.50000  1
 Pu  Pu1  1  0.00000  0.00000  0.00000  1
 Rb  Rb1  1  0.34693  0.34693  -0.00000  1
 Rb  Rb2  1  0.65307  0.65307  0.00000  1
