CIF file written using JARVIS-Tools package.
data_ErAgSn2
_symmetry_space_group_name_H-M  'P4/mmm'
_cell_length_a       4.63637
_cell_length_b       4.63637
_cell_length_c       4.34425
_cell_angle_alpha    90
_cell_angle_beta     90
_cell_angle_gamma    90

_symmetry_Int_Tables_number  123
_chemical_formula_structural  ErAgSn2
_chemical_formula_sum  ErAgSn2
_cell_volume  93.38366009984978
_cell_formula_units_Z  1
loop_
  _symmetry_equiv_pos_site_id
 _symmetry_equiv_pos_as_xyz
 1  'x, y, z'
loop_
 _atom_site_type_symbol
 _atom_site_label
 _atom_site_symmetry_multiplicity
 _atom_site_fract_x
 _atom_site_fract_y
 _atom_site_fract_z
 _atom_site_fract_occupancy
 Ag  Ag1  1  0.50000  0.50000  0.00000  1
 Er  Er1  1  0.00000  0.00000  0.00000  1
 Sn  Sn1  1  0.00000  0.50000  0.50000  1
 Sn  Sn2  1  0.50000  0.00000  0.50000  1
