CIF file written using JARVIS-Tools package.
data_RbSrCl3
_symmetry_space_group_name_H-M  'P4/mbm'
_cell_length_a       7.658
_cell_length_b       7.658
_cell_length_c       5.70493
_cell_angle_alpha    90
_cell_angle_beta     90
_cell_angle_gamma    90

_symmetry_Int_Tables_number  127
_chemical_formula_structural  RbSrCl3
_chemical_formula_sum  Rb2Sr2Cl6
_cell_volume  334.5656354468705
_cell_formula_units_Z  2
loop_
  _symmetry_equiv_pos_site_id
 _symmetry_equiv_pos_as_xyz
 1  'x, y, z'
loop_
 _atom_site_type_symbol
 _atom_site_label
 _atom_site_symmetry_multiplicity
 _atom_site_fract_x
 _atom_site_fract_y
 _atom_site_fract_z
 _atom_site_fract_occupancy
 Cl  Cl1  1  0.00000  0.00000  0.00000  1
 Cl  Cl2  1  0.50000  0.50000  0.00000  1
 Cl  Cl3  1  0.66912  0.16912  0.50000  1
 Cl  Cl4  1  0.33088  0.83088  0.50000  1
 Cl  Cl5  1  0.16912  0.33088  0.50000  1
 Cl  Cl6  1  0.83088  0.66912  0.50000  1
 Rb  Rb1  1  0.50000  0.00000  0.00000  1
 Rb  Rb2  1  0.00000  0.50000  0.00000  1
 Sr  Sr1  1  0.00000  0.00000  0.50000  1
 Sr  Sr2  1  0.50000  0.50000  0.50000  1
