CIF file written using JARVIS-Tools package.
data_CaAu2
_symmetry_space_group_name_H-M  'Imma'
_cell_length_a       4.55965
_cell_length_b       5.94683
_cell_length_c       5.94684
_cell_angle_alpha    72.5945
_cell_angle_beta     67.4575
_cell_angle_gamma    67.4575

_symmetry_Int_Tables_number  74
_chemical_formula_structural  CaAu2
_chemical_formula_sum  Ca2Au4
_cell_volume  135.34627634969672
_cell_formula_units_Z  2
loop_
  _symmetry_equiv_pos_site_id
 _symmetry_equiv_pos_as_xyz
 1  'x, y, z'
loop_
 _atom_site_type_symbol
 _atom_site_label
 _atom_site_symmetry_multiplicity
 _atom_site_fract_x
 _atom_site_fract_y
 _atom_site_fract_z
 _atom_site_fract_occupancy
 Au  Au1  1  0.15895  0.30493  0.37717  1
 Au  Au2  1  0.84105  0.69507  0.62283  1
 Au  Au3  1  0.15895  0.87717  0.80493  1
 Au  Au4  1  0.84105  0.12283  0.19507  1
 Ca  Ca1  1  0.54136  0.70864  0.20864  1
 Ca  Ca2  1  0.45864  0.29136  0.79136  1
