CIF file written using JARVIS-Tools package.
data_ErMg2
_symmetry_space_group_name_H-M  'Fd-3m'
_cell_length_a       5.96993
_cell_length_b       5.96993
_cell_length_c       5.96993
_cell_angle_alpha    60
_cell_angle_beta     60
_cell_angle_gamma    60

_symmetry_Int_Tables_number  227
_chemical_formula_structural  ErMg2
_chemical_formula_sum  Er2Mg4
_cell_volume  150.4503818730478
_cell_formula_units_Z  2
loop_
  _symmetry_equiv_pos_site_id
 _symmetry_equiv_pos_as_xyz
 1  'x, y, z'
loop_
 _atom_site_type_symbol
 _atom_site_label
 _atom_site_symmetry_multiplicity
 _atom_site_fract_x
 _atom_site_fract_y
 _atom_site_fract_z
 _atom_site_fract_occupancy
 Er  Er1  1  0.75000  0.75000  0.75000  1
 Er  Er2  1  0.50000  0.50000  0.50000  1
 Mg  Mg1  1  0.12500  0.62500  0.12500  1
 Mg  Mg2  1  0.12500  0.12500  0.12500  1
 Mg  Mg3  1  0.62500  0.12500  0.12500  1
 Mg  Mg4  1  0.12500  0.12500  0.62500  1
