CIF file written using JARVIS-Tools package.
data_ZnNi4
_symmetry_space_group_name_H-M  'R-3m'
_cell_length_a       10.2368
_cell_length_b       10.2368
_cell_length_c       10.2369
_cell_angle_alpha    14.1874
_cell_angle_beta     14.1873
_cell_angle_gamma    14.1874

_symmetry_Int_Tables_number  166
_chemical_formula_structural  ZnNi4
_chemical_formula_sum  ZnNi4
_cell_volume  56.09272416961402
_cell_formula_units_Z  1
loop_
  _symmetry_equiv_pos_site_id
 _symmetry_equiv_pos_as_xyz
 1  'x, y, z'
loop_
 _atom_site_type_symbol
 _atom_site_label
 _atom_site_symmetry_multiplicity
 _atom_site_fract_x
 _atom_site_fract_y
 _atom_site_fract_z
 _atom_site_fract_occupancy
 Ni  Ni1  1  0.59854  0.59854  0.59854  1
 Ni  Ni2  1  0.19945  0.19945  0.19945  1
 Ni  Ni3  1  0.80055  0.80055  0.80055  1
 Ni  Ni4  1  0.40146  0.40146  0.40146  1
 Zn  Zn1  1  0.00000  0.00000  0.00000  1
