CIF file written using JARVIS-Tools package.
data_Zr2Al3Zn
_symmetry_space_group_name_H-M  'R-3m'
_cell_length_a       5.25355
_cell_length_b       5.25355
_cell_length_c       5.25355
_cell_angle_alpha    60.823
_cell_angle_beta     60.8229
_cell_angle_gamma    60.823

_symmetry_Int_Tables_number  166
_chemical_formula_structural  Zr2Al3Zn
_chemical_formula_sum  Zr2Al3Zn
_cell_volume  104.4311626999271
_cell_formula_units_Z  1
loop_
  _symmetry_equiv_pos_site_id
 _symmetry_equiv_pos_as_xyz
 1  'x, y, z'
loop_
 _atom_site_type_symbol
 _atom_site_label
 _atom_site_symmetry_multiplicity
 _atom_site_fract_x
 _atom_site_fract_y
 _atom_site_fract_z
 _atom_site_fract_occupancy
 Al  Al1  1  0.00000  0.50000  0.00000  1
 Al  Al2  1  0.50000  0.00000  0.00000  1
 Al  Al3  1  0.00000  -0.00000  0.50000  1
 Zn  Zn1  1  0.00000  0.00000  0.00000  1
 Zr  Zr1  1  0.62420  0.62420  0.62420  1
 Zr  Zr2  1  0.37580  0.37580  0.37580  1
