CIF file written using JARVIS-Tools package.
data_CeCu5
_symmetry_space_group_name_H-M  'P6/mmm'
_cell_length_a       5.10092
_cell_length_b       5.10092
_cell_length_c       4.11821
_cell_angle_alpha    90
_cell_angle_beta     90
_cell_angle_gamma    120

_symmetry_Int_Tables_number  191
_chemical_formula_structural  CeCu5
_chemical_formula_sum  CeCu5
_cell_volume  92.79782996187076
_cell_formula_units_Z  1
loop_
  _symmetry_equiv_pos_site_id
 _symmetry_equiv_pos_as_xyz
 1  'x, y, z'
loop_
 _atom_site_type_symbol
 _atom_site_label
 _atom_site_symmetry_multiplicity
 _atom_site_fract_x
 _atom_site_fract_y
 _atom_site_fract_z
 _atom_site_fract_occupancy
 Ce  Ce1  1  0.00000  0.00000  0.00000  1
 Cu  Cu1  1  0.50000  0.00000  0.50000  1
 Cu  Cu2  1  0.33333  0.66667  0.00000  1
 Cu  Cu3  1  0.66667  0.33333  0.00000  1
 Cu  Cu4  1  0.00000  0.50000  0.50000  1
 Cu  Cu5  1  0.50000  0.50000  0.50000  1
