CIF file written using JARVIS-Tools package.
data_V5Te4
_symmetry_space_group_name_H-M  'I4/m'
_cell_length_a       3.99226
_cell_length_b       7.13357
_cell_length_c       7.13358
_cell_angle_alpha    85.5091
_cell_angle_beta     73.7505
_cell_angle_gamma    73.7505

_symmetry_Int_Tables_number  87
_chemical_formula_structural  V5Te4
_chemical_formula_sum  V5Te4
_cell_volume  187.25008855680457
_cell_formula_units_Z  1
loop_
  _symmetry_equiv_pos_site_id
 _symmetry_equiv_pos_as_xyz
 1  'x, y, z'
loop_
 _atom_site_type_symbol
 _atom_site_label
 _atom_site_symmetry_multiplicity
 _atom_site_fract_x
 _atom_site_fract_y
 _atom_site_fract_z
 _atom_site_fract_occupancy
 Te  Te1  1  0.07414  0.20244  0.64928  1
 Te  Te2  1  0.72342  0.35072  0.20244  1
 Te  Te3  1  0.27658  0.64928  0.79756  1
 Te  Te4  1  0.92586  0.79756  0.35072  1
 V  V1  1  0.00000  0.00000  0.00000  1
 V  V2  1  0.34092  0.07015  0.24802  1
 V  V3  1  0.58893  0.75198  0.07015  1
 V  V4  1  0.41107  0.24802  0.92985  1
 V  V5  1  0.65908  0.92985  0.75198  1
