CIF file written using JARVIS-Tools package.
data_Yb2AgPd
_symmetry_space_group_name_H-M  'P4/mmm'
_cell_length_a       3.49984
_cell_length_b       3.49984
_cell_length_c       7.08399
_cell_angle_alpha    90
_cell_angle_beta     90
_cell_angle_gamma    90

_symmetry_Int_Tables_number  123
_chemical_formula_structural  Yb2AgPd
_chemical_formula_sum  Yb2AgPd
_cell_volume  86.77107476237605
_cell_formula_units_Z  1
loop_
  _symmetry_equiv_pos_site_id
 _symmetry_equiv_pos_as_xyz
 1  'x, y, z'
loop_
 _atom_site_type_symbol
 _atom_site_label
 _atom_site_symmetry_multiplicity
 _atom_site_fract_x
 _atom_site_fract_y
 _atom_site_fract_z
 _atom_site_fract_occupancy
 Ag  Ag1  1  0.00000  0.00000  0.00000  1
 Pd  Pd1  1  0.00000  0.00000  0.50000  1
 Yb  Yb1  1  0.50000  0.50000  0.26582  1
 Yb  Yb2  1  0.50000  0.50000  0.73418  1
