CIF file written using JARVIS-Tools package.
data_SiNi2
_symmetry_space_group_name_H-M  'P6_3/mmc'
_cell_length_a       3.92244
_cell_length_b       3.92244
_cell_length_c       5.01959
_cell_angle_alpha    90
_cell_angle_beta     90
_cell_angle_gamma    120

_symmetry_Int_Tables_number  194
_chemical_formula_structural  SiNi2
_chemical_formula_sum  Si2Ni4
_cell_volume  66.88208802047478
_cell_formula_units_Z  2
loop_
  _symmetry_equiv_pos_site_id
 _symmetry_equiv_pos_as_xyz
 1  'x, y, z'
loop_
 _atom_site_type_symbol
 _atom_site_label
 _atom_site_symmetry_multiplicity
 _atom_site_fract_x
 _atom_site_fract_y
 _atom_site_fract_z
 _atom_site_fract_occupancy
 Ni  Ni1  1  0.33333  0.66667  0.75000  1
 Ni  Ni2  1  0.66667  0.33333  0.25000  1
 Ni  Ni3  1  0.00000  0.00000  0.50000  1
 Ni  Ni4  1  0.00000  0.00000  0.00000  1
 Si  Si1  1  0.66667  0.33333  0.75000  1
 Si  Si2  1  0.33333  0.66667  0.25000  1
