CIF file written using JARVIS-Tools package.
data_Dy2Co2I
_symmetry_space_group_name_H-M  'P6_3/mmc'
_cell_length_a       3.92579
_cell_length_b       3.9258
_cell_length_c       16.8289
_cell_angle_alpha    90
_cell_angle_beta     90
_cell_angle_gamma    120

_symmetry_Int_Tables_number  194
_chemical_formula_structural  Dy2Co2I
_chemical_formula_sum  Dy4Co4I2
_cell_volume  224.61658621809198
_cell_formula_units_Z  2
loop_
  _symmetry_equiv_pos_site_id
 _symmetry_equiv_pos_as_xyz
 1  'x, y, z'
loop_
 _atom_site_type_symbol
 _atom_site_label
 _atom_site_symmetry_multiplicity
 _atom_site_fract_x
 _atom_site_fract_y
 _atom_site_fract_z
 _atom_site_fract_occupancy
 Co  Co1  1  0.33333  0.66667  0.50166  1
 Co  Co2  1  0.66667  0.33333  0.49834  1
 Co  Co3  1  0.66667  0.33333  0.00166  1
 Co  Co4  1  0.33333  0.66667  0.99834  1
 Dy  Dy1  1  0.00000  0.00000  0.10373  1
 Dy  Dy2  1  0.00000  0.00000  0.89627  1
 Dy  Dy3  1  0.00000  0.00000  0.60373  1
 Dy  Dy4  1  0.00000  0.00000  0.39627  1
 I  I1  1  0.33333  0.66667  0.25000  1
 I  I2  1  0.66667  0.33333  0.75000  1
