CIF file written using JARVIS-Tools package.
data_Pm2AlIn
_symmetry_space_group_name_H-M  'Fm-3m'
_cell_length_a       5.33168
_cell_length_b       5.33168
_cell_length_c       5.33168
_cell_angle_alpha    60
_cell_angle_beta     60
_cell_angle_gamma    60

_symmetry_Int_Tables_number  225
_chemical_formula_structural  Pm2AlIn
_chemical_formula_sum  Pm2AlIn
_cell_volume  107.170955302892
_cell_formula_units_Z  1
loop_
  _symmetry_equiv_pos_site_id
 _symmetry_equiv_pos_as_xyz
 1  'x, y, z'
loop_
 _atom_site_type_symbol
 _atom_site_label
 _atom_site_symmetry_multiplicity
 _atom_site_fract_x
 _atom_site_fract_y
 _atom_site_fract_z
 _atom_site_fract_occupancy
 Al  Al1  1  0.50000  0.50000  0.50000  1
 In  In1  1  0.00000  0.00000  0.00000  1
 Pm  Pm1  1  0.25000  0.25000  0.25000  1
 Pm  Pm2  1  0.75000  0.75000  0.75000  1
