CIF file written using JARVIS-Tools package.
data_InSn2Te3
_symmetry_space_group_name_H-M  'P-3m1'
_cell_length_a       4.49855
_cell_length_b       4.49854
_cell_length_c       11.0869
_cell_angle_alpha    90
_cell_angle_beta     90
_cell_angle_gamma    120

_symmetry_Int_Tables_number  164
_chemical_formula_structural  InSn2Te3
_chemical_formula_sum  InSn2Te3
_cell_volume  194.3056496664947
_cell_formula_units_Z  1
loop_
  _symmetry_equiv_pos_site_id
 _symmetry_equiv_pos_as_xyz
 1  'x, y, z'
loop_
 _atom_site_type_symbol
 _atom_site_label
 _atom_site_symmetry_multiplicity
 _atom_site_fract_x
 _atom_site_fract_y
 _atom_site_fract_z
 _atom_site_fract_occupancy
 In  In1  1  0.00000  0.00000  0.00000  1
 Sn  Sn1  1  0.33333  0.66667  0.66896  1
 Sn  Sn2  1  0.66667  0.33333  0.33104  1
 Te  Te1  1  0.33333  0.66667  0.16730  1
 Te  Te2  1  0.66667  0.33333  0.83270  1
 Te  Te3  1  0.00000  0.00000  0.50000  1
