CIF file written using JARVIS-Tools package.
data_Pr2ZnAs4
_symmetry_space_group_name_H-M  'P-4m2'
_cell_length_a       4.02015
_cell_length_b       4.02015
_cell_length_c       10.2354
_cell_angle_alpha    90
_cell_angle_beta     90
_cell_angle_gamma    90

_symmetry_Int_Tables_number  115
_chemical_formula_structural  Pr2ZnAs4
_chemical_formula_sum  Pr2ZnAs4
_cell_volume  165.41987368462318
_cell_formula_units_Z  1
loop_
  _symmetry_equiv_pos_site_id
 _symmetry_equiv_pos_as_xyz
 1  'x, y, z'
loop_
 _atom_site_type_symbol
 _atom_site_label
 _atom_site_symmetry_multiplicity
 _atom_site_fract_x
 _atom_site_fract_y
 _atom_site_fract_z
 _atom_site_fract_occupancy
 As  As1  1  0.50000  0.00000  0.14999  1
 As  As2  1  0.00000  0.50000  0.85001  1
 As  As3  1  0.50000  0.50000  0.50000  1
 As  As4  1  0.00000  0.00000  0.50000  1
 Pr  Pr1  1  0.50000  0.00000  0.74073  1
 Pr  Pr2  1  0.00000  0.50000  0.25927  1
 Zn  Zn1  1  0.50000  0.50000  0.00000  1
