CIF file written using JARVIS-Tools package.
data_AlF3
_symmetry_space_group_name_H-M  'Cmmm'
_cell_length_a       3.62286
_cell_length_b       5.25804
_cell_length_c       5.91612
_cell_angle_alpha    63.6462
_cell_angle_beta     89.9676
_cell_angle_gamma    89.9564

_symmetry_Int_Tables_number  65
_chemical_formula_structural  AlF3
_chemical_formula_sum  Al2F6
_cell_volume  100.98434143126755
_cell_formula_units_Z  2
loop_
  _symmetry_equiv_pos_site_id
 _symmetry_equiv_pos_as_xyz
 1  'x, y, z'
loop_
 _atom_site_type_symbol
 _atom_site_label
 _atom_site_symmetry_multiplicity
 _atom_site_fract_x
 _atom_site_fract_y
 _atom_site_fract_z
 _atom_site_fract_occupancy
 Al  Al1  1  0.00000  0.36566  0.26849  1
 Al  Al2  1  -0.00000  0.63434  0.73151  1
 F  F1  1  0.00000  -0.00000  0.50000  1
 F  F2  1  0.00000  0.50000  0.50000  1
 F  F3  1  0.50000  0.63769  0.72491  1
 F  F4  1  0.50000  0.36231  0.27509  1
 F  F5  1  -0.00028  0.72305  0.00016  1
 F  F6  1  0.00028  0.27695  0.99984  1
