CIF file written using JARVIS-Tools package.
data_HfScSi2
_symmetry_space_group_name_H-M  'Amm2'
_cell_length_a       5.29685
_cell_length_b       5.29686
_cell_length_c       3.72363
_cell_angle_alpha    90
_cell_angle_beta     90
_cell_angle_gamma    137.474

_symmetry_Int_Tables_number  38
_chemical_formula_structural  HfScSi2
_chemical_formula_sum  HfScSi2
_cell_volume  70.61523722098727
_cell_formula_units_Z  1
loop_
  _symmetry_equiv_pos_site_id
 _symmetry_equiv_pos_as_xyz
 1  'x, y, z'
loop_
 _atom_site_type_symbol
 _atom_site_label
 _atom_site_symmetry_multiplicity
 _atom_site_fract_x
 _atom_site_fract_y
 _atom_site_fract_z
 _atom_site_fract_occupancy
 Hf  Hf1  1  0.14037  0.85963  0.50000  1
 Sc  Sc1  1  0.85816  0.14184  0.00000  1
 Si  Si1  1  0.41742  0.58258  0.50000  1
 Si  Si2  1  0.58404  0.41596  0.00000  1
