CIF file written using JARVIS-Tools package.
data_MoPd
_symmetry_space_group_name_H-M  'R-3m'
_cell_length_a       4.90682
_cell_length_b       4.90682
_cell_length_c       4.90681
_cell_angle_alpha    32.748
_cell_angle_beta     32.7479
_cell_angle_gamma    32.748

_symmetry_Int_Tables_number  166
_chemical_formula_structural  MoPd
_chemical_formula_sum  MoPd
_cell_volume  30.752307218612557
_cell_formula_units_Z  1
loop_
  _symmetry_equiv_pos_site_id
 _symmetry_equiv_pos_as_xyz
 1  'x, y, z'
loop_
 _atom_site_type_symbol
 _atom_site_label
 _atom_site_symmetry_multiplicity
 _atom_site_fract_x
 _atom_site_fract_y
 _atom_site_fract_z
 _atom_site_fract_occupancy
 Mo  Mo1  1  0.00000  0.00000  0.00000  1
 Pd  Pd1  1  0.50000  0.50000  0.50000  1
