CIF file written using JARVIS-Tools package.
data_RbBiS2
_symmetry_space_group_name_H-M  'R-3m'
_cell_length_a       8.04733
_cell_length_b       8.04732
_cell_length_c       8.04731
_cell_angle_alpha    30.0422
_cell_angle_beta     30.0422
_cell_angle_gamma    30.0422

_symmetry_Int_Tables_number  166
_chemical_formula_structural  RbBiS2
_chemical_formula_sum  RbBiS2
_cell_volume  115.7054487476499
_cell_formula_units_Z  1
loop_
  _symmetry_equiv_pos_site_id
 _symmetry_equiv_pos_as_xyz
 1  'x, y, z'
loop_
 _atom_site_type_symbol
 _atom_site_label
 _atom_site_symmetry_multiplicity
 _atom_site_fract_x
 _atom_site_fract_y
 _atom_site_fract_z
 _atom_site_fract_occupancy
 Bi  Bi1  1  0.00000  0.00000  0.00000  1
 Rb  Rb1  1  0.50000  0.50000  0.50000  1
 S  S1  1  0.26492  0.26492  0.26492  1
 S  S2  1  0.73508  0.73508  0.73508  1
