CIF file written using JARVIS-Tools package.
data_LiMnF3
_symmetry_space_group_name_H-M  'Cmcm'
_cell_length_a       5.08489
_cell_length_b       5.08489
_cell_length_c       7.60291
_cell_angle_alpha    90
_cell_angle_beta     90
_cell_angle_gamma    145.65

_symmetry_Int_Tables_number  63
_chemical_formula_structural  LiMnF3
_chemical_formula_sum  Li2Mn2F6
_cell_volume  110.92028167012415
_cell_formula_units_Z  2
loop_
  _symmetry_equiv_pos_site_id
 _symmetry_equiv_pos_as_xyz
 1  'x, y, z'
loop_
 _atom_site_type_symbol
 _atom_site_label
 _atom_site_symmetry_multiplicity
 _atom_site_fract_x
 _atom_site_fract_y
 _atom_site_fract_z
 _atom_site_fract_occupancy
 F  F1  1  0.89410  0.10590  0.75000  1
 F  F2  1  0.63835  0.36165  0.57741  1
 F  F3  1  0.63835  0.36165  0.92259  1
 F  F4  1  0.36165  0.63835  0.42259  1
 F  F5  1  0.36165  0.63835  0.07741  1
 F  F6  1  0.10590  0.89410  0.25000  1
 Li  Li1  1  0.74221  0.25779  0.25000  1
 Li  Li2  1  0.25779  0.74221  0.75000  1
 Mn  Mn1  1  0.00000  0.00000  0.00000  1
 Mn  Mn2  1  0.00000  0.00000  0.50000  1
