CIF file written using JARVIS-Tools package.
data_DySi2Rh2
_symmetry_space_group_name_H-M  'I4/mmm'
_cell_length_a       4.06868
_cell_length_b       4.06868
_cell_length_c       5.75811
_cell_angle_alpha    110.689
_cell_angle_beta     110.689
_cell_angle_gamma    90

_symmetry_Int_Tables_number  139
_chemical_formula_structural  DySi2Rh2
_chemical_formula_sum  DySi2Rh2
_cell_volume  82.56991956497964
_cell_formula_units_Z  1
loop_
  _symmetry_equiv_pos_site_id
 _symmetry_equiv_pos_as_xyz
 1  'x, y, z'
loop_
 _atom_site_type_symbol
 _atom_site_label
 _atom_site_symmetry_multiplicity
 _atom_site_fract_x
 _atom_site_fract_y
 _atom_site_fract_z
 _atom_site_fract_occupancy
 Dy  Dy1  1  0.00000  0.00000  0.00000  1
 Rh  Rh1  1  0.25000  0.75000  0.50000  1
 Rh  Rh2  1  0.75000  0.25000  0.50000  1
 Si  Si1  1  0.62152  0.62152  0.24303  1
 Si  Si2  1  0.37848  0.37848  0.75697  1
