CIF file written using JARVIS-Tools package.
data_MnCo2Si
_symmetry_space_group_name_H-M  'P4/mmm'
_cell_length_a       2.84081
_cell_length_b       2.84081
_cell_length_c       5.57198
_cell_angle_alpha    90
_cell_angle_beta     90
_cell_angle_gamma    90

_symmetry_Int_Tables_number  123
_chemical_formula_structural  MnCo2Si
_chemical_formula_sum  MnCo2Si
_cell_volume  44.96715629507569
_cell_formula_units_Z  1
loop_
  _symmetry_equiv_pos_site_id
 _symmetry_equiv_pos_as_xyz
 1  'x, y, z'
loop_
 _atom_site_type_symbol
 _atom_site_label
 _atom_site_symmetry_multiplicity
 _atom_site_fract_x
 _atom_site_fract_y
 _atom_site_fract_z
 _atom_site_fract_occupancy
 Co  Co1  1  0.00000  0.00000  0.73570  1
 Co  Co2  1  0.00000  0.00000  0.26430  1
 Mn  Mn1  1  0.50000  0.50000  0.00000  1
 Si  Si1  1  0.50000  0.50000  0.50000  1
