CIF file written using JARVIS-Tools package.
data_ZnPt
_symmetry_space_group_name_H-M  'P4/mmm'
_cell_length_a       3.54246
_cell_length_b       4.06894
_cell_length_c       4.06894
_cell_angle_alpha    90
_cell_angle_beta     90
_cell_angle_gamma    90

_symmetry_Int_Tables_number  123
_chemical_formula_structural  ZnPt
_chemical_formula_sum  Zn2Pt2
_cell_volume  58.65000309892532
_cell_formula_units_Z  2
loop_
  _symmetry_equiv_pos_site_id
 _symmetry_equiv_pos_as_xyz
 1  'x, y, z'
loop_
 _atom_site_type_symbol
 _atom_site_label
 _atom_site_symmetry_multiplicity
 _atom_site_fract_x
 _atom_site_fract_y
 _atom_site_fract_z
 _atom_site_fract_occupancy
 Pt  Pt1  1  0.00000  0.50000  0.50000  1
 Pt  Pt2  1  0.00000  0.00000  0.00000  1
 Zn  Zn1  1  0.50000  0.50000  0.00000  1
 Zn  Zn2  1  0.50000  0.00000  0.50000  1
