CIF file written using JARVIS-Tools package.
data_LiMnSe2
_symmetry_space_group_name_H-M  'P3m1'
_cell_length_a       3.97336
_cell_length_b       3.97336
_cell_length_c       6.47264
_cell_angle_alpha    90
_cell_angle_beta     90
_cell_angle_gamma    120

_symmetry_Int_Tables_number  156
_chemical_formula_structural  LiMnSe2
_chemical_formula_sum  LiMnSe2
_cell_volume  88.49696169544596
_cell_formula_units_Z  1
loop_
  _symmetry_equiv_pos_site_id
 _symmetry_equiv_pos_as_xyz
 1  'x, y, z'
loop_
 _atom_site_type_symbol
 _atom_site_label
 _atom_site_symmetry_multiplicity
 _atom_site_fract_x
 _atom_site_fract_y
 _atom_site_fract_z
 _atom_site_fract_occupancy
 Li  Li1  1  0.66667  0.33333  0.82422  1
 Mn  Mn1  1  0.00000  0.00000  0.34193  1
 Se  Se1  1  0.00000  0.00000  0.98692  1
 Se  Se2  1  0.33333  0.66667  0.49513  1
