CIF file written using JARVIS-Tools package.
data_La2CoNiO6
_symmetry_space_group_name_H-M  'R-3'
_cell_length_a       5.38433
_cell_length_b       5.38433
_cell_length_c       5.38433
_cell_angle_alpha    61.3573
_cell_angle_beta     61.3573
_cell_angle_gamma    61.3573

_symmetry_Int_Tables_number  148
_chemical_formula_structural  La2CoNiO6
_chemical_formula_sum  La2CoNiO6
_cell_volume  113.74377464592368
_cell_formula_units_Z  1
loop_
  _symmetry_equiv_pos_site_id
 _symmetry_equiv_pos_as_xyz
 1  'x, y, z'
loop_
 _atom_site_type_symbol
 _atom_site_label
 _atom_site_symmetry_multiplicity
 _atom_site_fract_x
 _atom_site_fract_y
 _atom_site_fract_z
 _atom_site_fract_occupancy
 Co  Co1  1  0.50000  0.50000  0.50000  1
 La  La1  1  0.25009  0.25009  0.25009  1
 La  La2  1  0.74991  0.74991  0.74991  1
 Ni  Ni1  1  0.00000  0.00000  0.00000  1
 O  O1  1  0.68908  0.80593  0.25376  1
 O  O2  1  0.25376  0.68908  0.80593  1
 O  O3  1  0.80593  0.25376  0.68908  1
 O  O4  1  0.74624  0.31092  0.19407  1
 O  O5  1  0.19407  0.74624  0.31092  1
 O  O6  1  0.31092  0.19407  0.74624  1
