CIF file written using JARVIS-Tools package.
data_Li2TlHg
_symmetry_space_group_name_H-M  'P4/mmm'
_cell_length_a       3.38765
_cell_length_b       3.38765
_cell_length_c       6.85003
_cell_angle_alpha    90
_cell_angle_beta     90
_cell_angle_gamma    90

_symmetry_Int_Tables_number  123
_chemical_formula_structural  Li2TlHg
_chemical_formula_sum  Li2TlHg
_cell_volume  78.61225730937518
_cell_formula_units_Z  1
loop_
  _symmetry_equiv_pos_site_id
 _symmetry_equiv_pos_as_xyz
 1  'x, y, z'
loop_
 _atom_site_type_symbol
 _atom_site_label
 _atom_site_symmetry_multiplicity
 _atom_site_fract_x
 _atom_site_fract_y
 _atom_site_fract_z
 _atom_site_fract_occupancy
 Hg  Hg1  1  0.00000  0.00000  0.00000  1
 Li  Li1  1  0.50000  0.50000  0.23282  1
 Li  Li2  1  0.50000  0.50000  0.76718  1
 Tl  Tl1  1  0.00000  0.00000  0.50000  1
