CIF file written using JARVIS-Tools package.
data_RbLuS2
_symmetry_space_group_name_H-M  'R-3m'
_cell_length_a       7.94298
_cell_length_b       7.94298
_cell_length_c       7.94298
_cell_angle_alpha    28.9183
_cell_angle_beta     28.9183
_cell_angle_gamma    28.9183

_symmetry_Int_Tables_number  166
_chemical_formula_structural  RbLuS2
_chemical_formula_sum  RbLuS2
_cell_volume  103.63261710375265
_cell_formula_units_Z  1
loop_
  _symmetry_equiv_pos_site_id
 _symmetry_equiv_pos_as_xyz
 1  'x, y, z'
loop_
 _atom_site_type_symbol
 _atom_site_label
 _atom_site_symmetry_multiplicity
 _atom_site_fract_x
 _atom_site_fract_y
 _atom_site_fract_z
 _atom_site_fract_occupancy
 Lu  Lu1  1  0.50000  0.50000  0.50000  1
 Rb  Rb1  1  0.00000  0.00000  0.00000  1
 S  S1  1  0.76993  0.76993  0.76993  1
 S  S2  1  0.23007  0.23007  0.23007  1
