CIF file written using JARVIS-Tools package.
data_K2LuCuCl6
_symmetry_space_group_name_H-M  'Fm-3m'
_cell_length_a       7.15452
_cell_length_b       7.15453
_cell_length_c       7.15453
_cell_angle_alpha    60
_cell_angle_beta     60
_cell_angle_gamma    60.0001

_symmetry_Int_Tables_number  225
_chemical_formula_structural  K2LuCuCl6
_chemical_formula_sum  K2LuCuCl6
_cell_volume  258.95738357856305
_cell_formula_units_Z  1
loop_
  _symmetry_equiv_pos_site_id
 _symmetry_equiv_pos_as_xyz
 1  'x, y, z'
loop_
 _atom_site_type_symbol
 _atom_site_label
 _atom_site_symmetry_multiplicity
 _atom_site_fract_x
 _atom_site_fract_y
 _atom_site_fract_z
 _atom_site_fract_occupancy
 Cl  Cl1  1  0.74745  0.25255  0.25255  1
 Cl  Cl2  1  0.25255  0.25255  0.74745  1
 Cl  Cl3  1  0.25255  0.74745  0.74745  1
 Cl  Cl4  1  0.25255  0.74745  0.25255  1
 Cl  Cl5  1  0.74745  0.25255  0.74745  1
 Cl  Cl6  1  0.74745  0.74745  0.25255  1
 Cu  Cu1  1  0.50000  0.50000  0.50000  1
 K  K1  1  0.75000  0.75000  0.75000  1
 K  K2  1  0.25000  0.25000  0.25000  1
 Lu  Lu1  1  0.00000  0.00000  0.00000  1
