CIF file written using JARVIS-Tools package.
data_Nb6SiGe
_symmetry_space_group_name_H-M  'Pm-3'
_cell_length_a       5.1593
_cell_length_b       5.1593
_cell_length_c       5.1593
_cell_angle_alpha    90
_cell_angle_beta     90
_cell_angle_gamma    90

_symmetry_Int_Tables_number  200
_chemical_formula_structural  Nb6SiGe
_chemical_formula_sum  Nb6SiGe
_cell_volume  137.33249866617993
_cell_formula_units_Z  1
loop_
  _symmetry_equiv_pos_site_id
 _symmetry_equiv_pos_as_xyz
 1  'x, y, z'
loop_
 _atom_site_type_symbol
 _atom_site_label
 _atom_site_symmetry_multiplicity
 _atom_site_fract_x
 _atom_site_fract_y
 _atom_site_fract_z
 _atom_site_fract_occupancy
 Ge  Ge1  1  0.00000  0.00000  0.00000  1
 Nb  Nb1  1  0.00000  0.50000  0.74709  1
 Nb  Nb2  1  0.50000  0.25291  0.00000  1
 Nb  Nb3  1  0.74709  0.00000  0.50000  1
 Nb  Nb4  1  0.00000  0.50000  0.25291  1
 Nb  Nb5  1  0.50000  0.74709  0.00000  1
 Nb  Nb6  1  0.25291  0.00000  0.50000  1
 Si  Si1  1  0.50000  0.50000  0.50000  1
