CIF file written using JARVIS-Tools package.
data_Pr2Ga5Au3
_symmetry_space_group_name_H-M  'P-4m2'
_cell_length_a       4.37585
_cell_length_b       4.37585
_cell_length_c       10.8109
_cell_angle_alpha    90
_cell_angle_beta     90
_cell_angle_gamma    90

_symmetry_Int_Tables_number  115
_chemical_formula_structural  Pr2Ga5Au3
_chemical_formula_sum  Pr2Ga5Au3
_cell_volume  207.00809534546303
_cell_formula_units_Z  1
loop_
  _symmetry_equiv_pos_site_id
 _symmetry_equiv_pos_as_xyz
 1  'x, y, z'
loop_
 _atom_site_type_symbol
 _atom_site_label
 _atom_site_symmetry_multiplicity
 _atom_site_fract_x
 _atom_site_fract_y
 _atom_site_fract_z
 _atom_site_fract_occupancy
 Au  Au1  1  0.00000  0.50000  0.86760  1
 Au  Au2  1  0.50000  0.00000  0.13240  1
 Au  Au3  1  0.50000  0.50000  0.50000  1
 Ga  Ga1  1  0.50000  0.50000  0.00000  1
 Ga  Ga2  1  0.00000  0.00000  0.00000  1
 Ga  Ga3  1  0.00000  0.50000  0.63555  1
 Ga  Ga4  1  0.50000  0.00000  0.36445  1
 Ga  Ga5  1  0.00000  0.00000  0.50000  1
 Pr  Pr1  1  0.00000  0.50000  0.25273  1
 Pr  Pr2  1  0.50000  0.00000  0.74727  1
