CIF file written using JARVIS-Tools package.
data_RbAu3Se2
_symmetry_space_group_name_H-M  'P-3m1'
_cell_length_a       6.21096
_cell_length_b       6.21096
_cell_length_c       5.19359
_cell_angle_alpha    90
_cell_angle_beta     90
_cell_angle_gamma    120

_symmetry_Int_Tables_number  164
_chemical_formula_structural  RbAu3Se2
_chemical_formula_sum  RbAu3Se2
_cell_volume  173.50664643049868
_cell_formula_units_Z  1
loop_
  _symmetry_equiv_pos_site_id
 _symmetry_equiv_pos_as_xyz
 1  'x, y, z'
loop_
 _atom_site_type_symbol
 _atom_site_label
 _atom_site_symmetry_multiplicity
 _atom_site_fract_x
 _atom_site_fract_y
 _atom_site_fract_z
 _atom_site_fract_occupancy
 Au  Au1  1  0.50000  -0.00000  0.00000  1
 Au  Au2  1  -0.00000  0.50000  0.00000  1
 Au  Au3  1  0.50000  0.50000  0.00000  1
 Rb  Rb1  1  0.00000  0.00000  0.50000  1
 Se  Se1  1  0.33333  0.66667  0.33054  1
 Se  Se2  1  0.66667  0.33333  0.66946  1
