CIF file written using JARVIS-Tools package.
data_K2NaPdF6
_symmetry_space_group_name_H-M  'I4/mmm'
_cell_length_a       6.03184
_cell_length_b       6.03184
_cell_length_c       6.03184
_cell_angle_alpha    121.567
_cell_angle_beta     121.567
_cell_angle_gamma    87.3059

_symmetry_Int_Tables_number  139
_chemical_formula_structural  K2NaPdF6
_chemical_formula_sum  K2NaPdF6
_cell_volume  151.32104167982385
_cell_formula_units_Z  1
loop_
  _symmetry_equiv_pos_site_id
 _symmetry_equiv_pos_as_xyz
 1  'x, y, z'
loop_
 _atom_site_type_symbol
 _atom_site_label
 _atom_site_symmetry_multiplicity
 _atom_site_fract_x
 _atom_site_fract_y
 _atom_site_fract_z
 _atom_site_fract_occupancy
 F  F1  1  0.23725  0.23725  0.47450  1
 F  F2  1  0.76275  0.76275  0.52550  1
 F  F3  1  0.23725  0.76275  -0.00000  1
 F  F4  1  0.76275  0.23725  -0.00000  1
 F  F5  1  0.24887  0.24887  -0.00000  1
 F  F6  1  0.75113  0.75113  0.00000  1
 K  K1  1  0.75000  0.25000  0.50000  1
 K  K2  1  0.25000  0.75000  0.50000  1
 Na  Na1  1  0.50000  0.50000  -0.00000  1
 Pd  Pd1  1  0.00000  0.00000  0.00000  1
