CIF file written using JARVIS-Tools package.
data_Pr3MgAl2
_symmetry_space_group_name_H-M  'P4/mmm'
_cell_length_a       3.75562
_cell_length_b       3.75562
_cell_length_c       11.6906
_cell_angle_alpha    90
_cell_angle_beta     90
_cell_angle_gamma    90

_symmetry_Int_Tables_number  123
_chemical_formula_structural  Pr3MgAl2
_chemical_formula_sum  Pr3MgAl2
_cell_volume  164.8915196616982
_cell_formula_units_Z  1
loop_
  _symmetry_equiv_pos_site_id
 _symmetry_equiv_pos_as_xyz
 1  'x, y, z'
loop_
 _atom_site_type_symbol
 _atom_site_label
 _atom_site_symmetry_multiplicity
 _atom_site_fract_x
 _atom_site_fract_y
 _atom_site_fract_z
 _atom_site_fract_occupancy
 Al  Al1  1  0.00000  0.00000  0.33381  1
 Al  Al2  1  0.00000  0.00000  0.66619  1
 Mg  Mg1  1  0.00000  0.00000  0.00000  1
 Pr  Pr1  1  0.50000  0.50000  0.17725  1
 Pr  Pr2  1  0.50000  0.50000  0.50000  1
 Pr  Pr3  1  0.50000  0.50000  0.82275  1
