CIF file written using JARVIS-Tools package.
data_Tl6SeI4
_symmetry_space_group_name_H-M  'P4/mnc'
_cell_length_a       9.24541
_cell_length_b       9.24541
_cell_length_c       9.76474
_cell_angle_alpha    90
_cell_angle_beta     90
_cell_angle_gamma    90

_symmetry_Int_Tables_number  128
_chemical_formula_structural  Tl6SeI4
_chemical_formula_sum  Tl2Se2I8
_cell_volume  834.6664957789895
_cell_formula_units_Z  2
loop_
  _symmetry_equiv_pos_site_id
 _symmetry_equiv_pos_as_xyz
 1  'x, y, z'
loop_
 _atom_site_type_symbol
 _atom_site_label
 _atom_site_symmetry_multiplicity
 _atom_site_fract_x
 _atom_site_fract_y
 _atom_site_fract_z
 _atom_site_fract_occupancy
 I  I1  1  0.16290  0.33710  0.25000  1
 I  I2  1  0.83710  0.66290  0.25000  1
 I  I3  1  0.83710  0.66290  0.75000  1
 I  I4  1  0.33710  0.83710  0.75000  1
 I  I5  1  0.66290  0.16290  0.75000  1
 I  I6  1  0.16290  0.33710  0.75000  1
 I  I7  1  0.66290  0.16290  0.25000  1
 I  I8  1  0.33710  0.83710  0.25000  1
 Se  Se1  1  0.50000  0.50000  0.00000  1
 Se  Se2  1  0.00000  0.00000  0.50000  1
 Tl  Tl1  1  0.18338  0.61076  0.00000  1
 Tl  Tl2  1  0.68338  0.88924  0.50000  1
 Tl  Tl3  1  0.11076  0.68338  0.50000  1
 Tl  Tl4  1  0.88924  0.31662  0.50000  1
 Tl  Tl5  1  0.00000  0.00000  0.19393  1
 Tl  Tl6  1  0.81662  0.38924  0.00000  1
 Tl  Tl7  1  0.38924  0.18338  0.00000  1
 Tl  Tl8  1  0.00000  0.00000  0.80607  1
 Tl  Tl9  1  0.50000  0.50000  0.69393  1
 Tl  Tl10  1  0.50000  0.50000  0.30607  1
 Tl  Tl11  1  0.61076  0.81662  0.00000  1
 Tl  Tl12  1  0.31662  0.11076  0.50000  1
