CIF file written using JARVIS-Tools package.
data_AlCuS2
_symmetry_space_group_name_H-M  'I-42d'
_cell_length_a       5.33091
_cell_length_b       5.33091
_cell_length_c       6.47557
_cell_angle_alpha    114.306
_cell_angle_beta     114.306
_cell_angle_gamma    90

_symmetry_Int_Tables_number  122
_chemical_formula_structural  AlCuS2
_chemical_formula_sum  Al2Cu2S4
_cell_volume  149.63335912875445
_cell_formula_units_Z  2
loop_
  _symmetry_equiv_pos_site_id
 _symmetry_equiv_pos_as_xyz
 1  'x, y, z'
loop_
 _atom_site_type_symbol
 _atom_site_label
 _atom_site_symmetry_multiplicity
 _atom_site_fract_x
 _atom_site_fract_y
 _atom_site_fract_z
 _atom_site_fract_occupancy
 Al  Al1  1  0.50000  0.50000  -0.00000  1
 Al  Al2  1  0.75000  0.25000  0.50000  1
 Cu  Cu1  1  0.25000  0.75000  0.50000  1
 Cu  Cu2  1  0.00000  0.00000  0.00000  1
 S  S1  1  0.86669  0.87500  0.25000  1
 S  S2  1  0.62500  0.13331  0.75000  1
 S  S3  1  0.38331  0.37500  0.25000  1
 S  S4  1  0.12500  0.61669  0.75000  1
