CIF file written using JARVIS-Tools package.
data_BaLaCoSbO6
_symmetry_space_group_name_H-M  'I-4'
_cell_length_a       5.77215
_cell_length_b       5.77215
_cell_length_c       5.77215
_cell_angle_alpha    120.962
_cell_angle_beta     120.962
_cell_angle_gamma    88.3425

_symmetry_Int_Tables_number  82
_chemical_formula_structural  BaLaCoSbO6
_chemical_formula_sum  BaLaCoSbO6
_cell_volume  133.94977754157648
_cell_formula_units_Z  1
loop_
  _symmetry_equiv_pos_site_id
 _symmetry_equiv_pos_as_xyz
 1  'x, y, z'
loop_
 _atom_site_type_symbol
 _atom_site_label
 _atom_site_symmetry_multiplicity
 _atom_site_fract_x
 _atom_site_fract_y
 _atom_site_fract_z
 _atom_site_fract_occupancy
 Ba  Ba1  1  0.75000  0.25000  0.50000  1
 Co  Co1  1  0.00000  0.00000  0.00000  1
 La  La1  1  0.25000  0.75000  0.50000  1
 O  O1  1  0.81736  0.32584  0.10280  1
 O  O2  1  0.22304  0.71456  0.89720  1
 O  O3  1  0.28544  0.18264  0.50848  1
 O  O4  1  0.67416  0.77696  0.49152  1
 O  O5  1  0.25532  0.25532  0.00000  1
 O  O6  1  0.74468  0.74468  -0.00000  1
 Sb  Sb1  1  0.50000  0.50000  -0.00000  1
