CIF file written using JARVIS-Tools package.
data_AlCuTe2
_symmetry_space_group_name_H-M  'I-42d'
_cell_length_a       6.09129
_cell_length_b       6.09129
_cell_length_c       7.42472
_cell_angle_alpha    114.218
_cell_angle_beta     114.218
_cell_angle_gamma    90.0001

_symmetry_Int_Tables_number  122
_chemical_formula_structural  AlCuTe2
_chemical_formula_sum  Al2Cu2Te4
_cell_volume  224.39239899850736
_cell_formula_units_Z  2
loop_
  _symmetry_equiv_pos_site_id
 _symmetry_equiv_pos_as_xyz
 1  'x, y, z'
loop_
 _atom_site_type_symbol
 _atom_site_label
 _atom_site_symmetry_multiplicity
 _atom_site_fract_x
 _atom_site_fract_y
 _atom_site_fract_z
 _atom_site_fract_occupancy
 Al  Al1  1  0.75000  0.25000  0.50000  1
 Al  Al2  1  0.50000  0.50000  0.00000  1
 Cu  Cu1  1  0.25000  0.75000  0.50000  1
 Cu  Cu2  1  0.00000  0.00000  0.00000  1
 Te  Te1  1  0.36743  0.37500  0.25000  1
 Te  Te2  1  0.12500  0.63257  0.75000  1
 Te  Te3  1  0.62500  0.11743  0.75000  1
 Te  Te4  1  0.88257  0.87500  0.25000  1
