CIF file written using JARVIS-Tools package.
data_Zn2TeSe
_symmetry_space_group_name_H-M  'R3m'
_cell_length_a       7.28727
_cell_length_b       7.28727
_cell_length_c       7.28727
_cell_angle_alpha    33.5921
_cell_angle_beta     33.5921
_cell_angle_gamma    33.5921

_symmetry_Int_Tables_number  160
_chemical_formula_structural  Zn2TeSe
_chemical_formula_sum  Zn2TeSe
_cell_volume  105.5232161472748
_cell_formula_units_Z  1
loop_
  _symmetry_equiv_pos_site_id
 _symmetry_equiv_pos_as_xyz
 1  'x, y, z'
loop_
 _atom_site_type_symbol
 _atom_site_label
 _atom_site_symmetry_multiplicity
 _atom_site_fract_x
 _atom_site_fract_y
 _atom_site_fract_z
 _atom_site_fract_occupancy
 Se  Se1  1  0.87466  0.87466  0.87466  1
 Te  Te1  1  0.37558  0.37558  0.37558  1
 Zn  Zn1  1  0.99483  0.99483  0.99483  1
 Zn  Zn2  1  0.50493  0.50493  0.50493  1
