CIF file written using JARVIS-Tools package.
data_CoS2
_symmetry_space_group_name_H-M  'R-3m'
_cell_length_a       5.30307
_cell_length_b       5.30307
_cell_length_c       5.30307
_cell_angle_alpha    37.48
_cell_angle_beta     37.4799
_cell_angle_gamma    37.4801

_symmetry_Int_Tables_number  166
_chemical_formula_structural  CoS2
_chemical_formula_sum  CoS2
_cell_volume  49.5190692120081
_cell_formula_units_Z  1
loop_
  _symmetry_equiv_pos_site_id
 _symmetry_equiv_pos_as_xyz
 1  'x, y, z'
loop_
 _atom_site_type_symbol
 _atom_site_label
 _atom_site_symmetry_multiplicity
 _atom_site_fract_x
 _atom_site_fract_y
 _atom_site_fract_z
 _atom_site_fract_occupancy
 Co  Co1  1  0.00000  0.00000  0.00000  1
 S  S1  1  0.59226  0.59226  0.59226  1
 S  S2  1  0.40774  0.40774  0.40774  1
