CIF file written using JARVIS-Tools package.
data_NiRh2O4
_symmetry_space_group_name_H-M  'Fd-3m'
_cell_length_a       6.03516
_cell_length_b       6.03515
_cell_length_c       6.03225
_cell_angle_alpha    120.016
_cell_angle_beta     120.016
_cell_angle_gamma    90

_symmetry_Int_Tables_number  227
_chemical_formula_structural  NiRh2O4
_chemical_formula_sum  Ni2Rh4O8
_cell_volume  155.28576784545209
_cell_formula_units_Z  2
loop_
  _symmetry_equiv_pos_site_id
 _symmetry_equiv_pos_as_xyz
 1  'x, y, z'
loop_
 _atom_site_type_symbol
 _atom_site_label
 _atom_site_symmetry_multiplicity
 _atom_site_fract_x
 _atom_site_fract_y
 _atom_site_fract_z
 _atom_site_fract_occupancy
 Ni  Ni1  1  0.12500  0.87500  0.25000  1
 Ni  Ni2  1  0.87500  0.12500  0.75000  1
 O  O1  1  0.25895  0.74062  0.51791  1
 O  O2  1  0.72271  0.74105  0.98210  1
 O  O3  1  0.25939  0.74105  0.98210  1
 O  O4  1  0.74105  0.25939  0.48210  1
 O  O5  1  0.74105  0.72271  0.48209  1
 O  O6  1  0.27729  0.25895  0.01791  1
 O  O7  1  0.25895  0.27729  0.51791  1
 O  O8  1  0.74061  0.25895  0.01791  1
 Rh  Rh1  1  0.50000  0.50000  0.00000  1
 Rh  Rh2  1  -0.00000  0.50000  0.50000  1
 Rh  Rh3  1  0.50000  0.50000  0.50000  1
 Rh  Rh4  1  0.50000  -0.00000  -0.00000  1
