CIF file written using JARVIS-Tools package.
data_Na3SbSe4
_symmetry_space_group_name_H-M  'I-43m'
_cell_length_a       6.47398
_cell_length_b       6.47398
_cell_length_c       6.47398
_cell_angle_alpha    109.471
_cell_angle_beta     109.471
_cell_angle_gamma    109.471

_symmetry_Int_Tables_number  217
_chemical_formula_structural  Na3SbSe4
_chemical_formula_sum  Na3SbSe4
_cell_volume  208.87801967041648
_cell_formula_units_Z  1
loop_
  _symmetry_equiv_pos_site_id
 _symmetry_equiv_pos_as_xyz
 1  'x, y, z'
loop_
 _atom_site_type_symbol
 _atom_site_label
 _atom_site_symmetry_multiplicity
 _atom_site_fract_x
 _atom_site_fract_y
 _atom_site_fract_z
 _atom_site_fract_occupancy
 Na  Na1  1  0.00000  0.50000  0.50000  1
 Na  Na2  1  0.50000  0.00000  0.50000  1
 Na  Na3  1  0.50000  0.50000  0.00000  1
 Sb  Sb1  1  0.00000  0.00000  0.00000  1
 Se  Se1  1  0.39025  0.39025  0.39025  1
 Se  Se2  1  -0.00000  0.60975  -0.00000  1
 Se  Se3  1  0.60975  -0.00000  -0.00000  1
 Se  Se4  1  0.00000  0.00000  0.60975  1
