CIF file written using JARVIS-Tools package.
data_Se
_symmetry_space_group_name_H-M  'R-3'
_cell_length_a       6.61557
_cell_length_b       6.61557
_cell_length_c       6.61557
_cell_angle_alpha    114.859
_cell_angle_beta     114.859
_cell_angle_gamma    114.859

_symmetry_Int_Tables_number  148
_chemical_formula_structural  Se
_chemical_formula_sum  Se6
_cell_volume  164.09687639986672
_cell_formula_units_Z  6
loop_
  _symmetry_equiv_pos_site_id
 _symmetry_equiv_pos_as_xyz
 1  'x, y, z'
loop_
 _atom_site_type_symbol
 _atom_site_label
 _atom_site_symmetry_multiplicity
 _atom_site_fract_x
 _atom_site_fract_y
 _atom_site_fract_z
 _atom_site_fract_occupancy
 Se  Se1  1  0.29259  0.16260  0.91386  1
 Se  Se2  1  0.91386  0.29259  0.16260  1
 Se  Se3  1  0.16260  0.91386  0.29259  1
 Se  Se4  1  0.70741  0.83740  0.08614  1
 Se  Se5  1  0.08614  0.70741  0.83740  1
 Se  Se6  1  0.83740  0.08614  0.70741  1
