CIF file written using JARVIS-Tools package.
data_UFe2
_symmetry_space_group_name_H-M  'Fd-3m'
_cell_length_a       4.88814
_cell_length_b       4.88814
_cell_length_c       4.88814
_cell_angle_alpha    60
_cell_angle_beta     60
_cell_angle_gamma    60

_symmetry_Int_Tables_number  227
_chemical_formula_structural  UFe2
_chemical_formula_sum  U2Fe4
_cell_volume  82.58771931199506
_cell_formula_units_Z  2
loop_
  _symmetry_equiv_pos_site_id
 _symmetry_equiv_pos_as_xyz
 1  'x, y, z'
loop_
 _atom_site_type_symbol
 _atom_site_label
 _atom_site_symmetry_multiplicity
 _atom_site_fract_x
 _atom_site_fract_y
 _atom_site_fract_z
 _atom_site_fract_occupancy
 Fe  Fe1  1  0.50000  0.00000  0.50000  1
 Fe  Fe2  1  -0.00000  0.50000  0.50000  1
 Fe  Fe3  1  0.50000  0.50000  0.50000  1
 Fe  Fe4  1  0.50000  0.50000  0.00000  1
 U  U1  1  0.12500  0.12500  0.12500  1
 U  U2  1  0.87500  0.87500  0.87500  1
