CIF file written using JARVIS-Tools package.
data_CuNi3O4
_symmetry_space_group_name_H-M  'Cmmm'
_cell_length_a       2.8813
_cell_length_b       5.36498
_cell_length_c       5.36498
_cell_angle_alpha    64.6384
_cell_angle_beta     90
_cell_angle_gamma    90

_symmetry_Int_Tables_number  65
_chemical_formula_structural  CuNi3O4
_chemical_formula_sum  CuNi3O4
_cell_volume  74.93959117926502
_cell_formula_units_Z  1
loop_
  _symmetry_equiv_pos_site_id
 _symmetry_equiv_pos_as_xyz
 1  'x, y, z'
loop_
 _atom_site_type_symbol
 _atom_site_label
 _atom_site_symmetry_multiplicity
 _atom_site_fract_x
 _atom_site_fract_y
 _atom_site_fract_z
 _atom_site_fract_occupancy
 Cu  Cu1  1  0.00000  0.50000  0.50000  1
 Ni  Ni1  1  0.50000  0.50000  -0.00000  1
 Ni  Ni2  1  0.50000  -0.00000  0.50000  1
 Ni  Ni3  1  0.00000  0.00000  0.00000  1
 O  O1  1  -0.00000  0.78458  0.78458  1
 O  O2  1  0.50000  0.74504  0.25496  1
 O  O3  1  0.50000  0.25496  0.74504  1
 O  O4  1  -0.00000  0.21542  0.21542  1
