CIF file written using JARVIS-Tools package.
data_Rb2PtF6
_symmetry_space_group_name_H-M  'P-3m1'
_cell_length_a       5.97924
_cell_length_b       5.97924
_cell_length_c       4.75461
_cell_angle_alpha    90
_cell_angle_beta     90
_cell_angle_gamma    120

_symmetry_Int_Tables_number  164
_chemical_formula_structural  Rb2PtF6
_chemical_formula_sum  Rb2PtF6
_cell_volume  147.20997737337362
_cell_formula_units_Z  1
loop_
  _symmetry_equiv_pos_site_id
 _symmetry_equiv_pos_as_xyz
 1  'x, y, z'
loop_
 _atom_site_type_symbol
 _atom_site_label
 _atom_site_symmetry_multiplicity
 _atom_site_fract_x
 _atom_site_fract_y
 _atom_site_fract_z
 _atom_site_fract_occupancy
 F  F1  1  0.83964  0.67929  0.22428  1
 F  F2  1  0.83964  0.16036  0.22428  1
 F  F3  1  0.32071  0.16036  0.22428  1
 F  F4  1  0.16036  0.32071  0.77572  1
 F  F5  1  0.16036  0.83964  0.77572  1
 F  F6  1  0.67929  0.83964  0.77572  1
 Pt  Pt1  1  0.00000  0.00000  0.00000  1
 Rb  Rb1  1  0.33333  0.66667  0.28779  1
 Rb  Rb2  1  0.66667  0.33333  0.71221  1
