CIF file written using JARVIS-Tools package.
data_Tl2FeCu3S4
_symmetry_space_group_name_H-M  'P-4m2'
_cell_length_a       3.81294
_cell_length_b       3.81294
_cell_length_c       13.5039
_cell_angle_alpha    90
_cell_angle_beta     90
_cell_angle_gamma    90

_symmetry_Int_Tables_number  115
_chemical_formula_structural  Tl2FeCu3S4
_chemical_formula_sum  Tl2FeCu3S4
_cell_volume  196.32667965266128
_cell_formula_units_Z  1
loop_
  _symmetry_equiv_pos_site_id
 _symmetry_equiv_pos_as_xyz
 1  'x, y, z'
loop_
 _atom_site_type_symbol
 _atom_site_label
 _atom_site_symmetry_multiplicity
 _atom_site_fract_x
 _atom_site_fract_y
 _atom_site_fract_z
 _atom_site_fract_occupancy
 Cu  Cu1  1  0.00000  0.00000  0.50000  1
 Cu  Cu2  1  0.00000  0.00000  0.00000  1
 Cu  Cu3  1  0.50000  0.50000  0.50000  1
 Fe  Fe1  1  0.50000  0.50000  0.00000  1
 S  S1  1  0.00000  0.50000  0.89945  1
 S  S2  1  0.50000  0.00000  0.39439  1
 S  S3  1  0.50000  0.00000  0.10055  1
 S  S4  1  0.00000  0.50000  0.60561  1
 Tl  Tl1  1  0.50000  0.00000  0.73615  1
 Tl  Tl2  1  0.00000  0.50000  0.26385  1
