CIF file written using JARVIS-Tools package.
data_SiO2
_symmetry_space_group_name_H-M  'P6_322'
_cell_length_a       5.05149
_cell_length_b       5.05149
_cell_length_c       8.64785
_cell_angle_alpha    90
_cell_angle_beta     90
_cell_angle_gamma    120

_symmetry_Int_Tables_number  182
_chemical_formula_structural  SiO2
_chemical_formula_sum  Si4O8
_cell_volume  191.10760147566975
_cell_formula_units_Z  4
loop_
  _symmetry_equiv_pos_site_id
 _symmetry_equiv_pos_as_xyz
 1  'x, y, z'
loop_
 _atom_site_type_symbol
 _atom_site_label
 _atom_site_symmetry_multiplicity
 _atom_site_fract_x
 _atom_site_fract_y
 _atom_site_fract_z
 _atom_site_fract_occupancy
 O  O1  1  0.00000  0.40645  0.00000  1
 O  O2  1  0.40645  0.40645  0.50000  1
 O  O3  1  0.59355  0.00000  0.50000  1
 O  O4  1  0.59355  0.59355  0.00000  1
 O  O5  1  -0.00000  0.59355  0.50000  1
 O  O6  1  0.66667  0.33333  0.75000  1
 O  O7  1  0.33333  0.66667  0.25000  1
 O  O8  1  0.40645  -0.00000  0.00000  1
 Si  Si1  1  0.66667  0.33333  0.93692  1
 Si  Si2  1  0.66667  0.33333  0.56308  1
 Si  Si3  1  0.33333  0.66667  0.06308  1
 Si  Si4  1  0.33333  0.66667  0.43692  1
