CIF file written using JARVIS-Tools package.
data_IrW
_symmetry_space_group_name_H-M  'Pmma'
_cell_length_a       2.78863
_cell_length_b       4.48751
_cell_length_c       4.86752
_cell_angle_alpha    90
_cell_angle_beta     90
_cell_angle_gamma    90

_symmetry_Int_Tables_number  51
_chemical_formula_structural  IrW
_chemical_formula_sum  Ir2W2
_cell_volume  60.912229508045755
_cell_formula_units_Z  2
loop_
  _symmetry_equiv_pos_site_id
 _symmetry_equiv_pos_as_xyz
 1  'x, y, z'
loop_
 _atom_site_type_symbol
 _atom_site_label
 _atom_site_symmetry_multiplicity
 _atom_site_fract_x
 _atom_site_fract_y
 _atom_site_fract_z
 _atom_site_fract_occupancy
 Ir  Ir1  1  0.50000  0.25000  0.32303  1
 Ir  Ir2  1  0.50000  0.75000  0.67697  1
 W  W1  1  0.00000  0.25000  0.82788  1
 W  W2  1  0.00000  0.75000  0.17212  1
