CIF file written using JARVIS-Tools package.
data_RbFe2As2
_symmetry_space_group_name_H-M  'I4/mmm'
_cell_length_a       7.74549
_cell_length_b       7.74549
_cell_length_c       7.74549
_cell_angle_alpha    151.885
_cell_angle_beta     151.885
_cell_angle_gamma    40.1809

_symmetry_Int_Tables_number  139
_chemical_formula_structural  RbFe2As2
_chemical_formula_sum  RbFe2As2
_cell_volume  102.98534310972595
_cell_formula_units_Z  1
loop_
  _symmetry_equiv_pos_site_id
 _symmetry_equiv_pos_as_xyz
 1  'x, y, z'
loop_
 _atom_site_type_symbol
 _atom_site_label
 _atom_site_symmetry_multiplicity
 _atom_site_fract_x
 _atom_site_fract_y
 _atom_site_fract_z
 _atom_site_fract_occupancy
 As  As1  1  0.34540  0.34540  0.00000  1
 As  As2  1  0.65460  0.65460  0.00000  1
 Fe  Fe1  1  0.75000  0.25000  0.50000  1
 Fe  Fe2  1  0.25000  0.75000  0.50000  1
 Rb  Rb1  1  0.00000  0.00000  0.00000  1
