CIF file written using JARVIS-Tools package.
data_NiCl2O8
_symmetry_space_group_name_H-M  'R-3'
_cell_length_a       7.61467
_cell_length_b       7.61467
_cell_length_c       7.61467
_cell_angle_alpha    36.3821
_cell_angle_beta     36.3821
_cell_angle_gamma    36.3821

_symmetry_Int_Tables_number  148
_chemical_formula_structural  NiCl2O8
_chemical_formula_sum  NiCl2O8
_cell_volume  139.0415499733185
_cell_formula_units_Z  1
loop_
  _symmetry_equiv_pos_site_id
 _symmetry_equiv_pos_as_xyz
 1  'x, y, z'
loop_
 _atom_site_type_symbol
 _atom_site_label
 _atom_site_symmetry_multiplicity
 _atom_site_fract_x
 _atom_site_fract_y
 _atom_site_fract_z
 _atom_site_fract_occupancy
 Cl  Cl1  1  0.25150  0.25150  0.25150  1
 Cl  Cl2  1  0.74850  0.74850  0.74850  1
 Ni  Ni1  1  0.00000  0.00000  0.00000  1
 O  O1  1  0.26289  0.99133  0.57302  1
 O  O2  1  0.57302  0.26289  0.99133  1
 O  O3  1  0.99133  0.57302  0.26289  1
 O  O4  1  0.73711  0.00867  0.42698  1
 O  O5  1  0.42698  0.73711  0.00867  1
 O  O6  1  0.00867  0.42698  0.73711  1
 O  O7  1  0.18523  0.18523  0.18523  1
 O  O8  1  0.81477  0.81477  0.81477  1
