CIF file written using JARVIS-Tools package.
data_Li2FePO5
_symmetry_space_group_name_H-M  'P4/nmm'
_cell_length_a       6.4055
_cell_length_b       6.4055
_cell_length_c       4.43498
_cell_angle_alpha    90
_cell_angle_beta     90
_cell_angle_gamma    90

_symmetry_Int_Tables_number  129
_chemical_formula_structural  Li2FePO5
_chemical_formula_sum  Li4Fe2P2O0
_cell_volume  181.96930297060763
_cell_formula_units_Z  2
loop_
  _symmetry_equiv_pos_site_id
 _symmetry_equiv_pos_as_xyz
 1  'x, y, z'
loop_
 _atom_site_type_symbol
 _atom_site_label
 _atom_site_symmetry_multiplicity
 _atom_site_fract_x
 _atom_site_fract_y
 _atom_site_fract_z
 _atom_site_fract_occupancy
 Fe  Fe1  1  0.50000  0.00000  0.07140  1
 Fe  Fe2  1  0.00000  0.50000  0.92860  1
 Li  Li1  1  0.75000  0.25000  0.50000  1
 Li  Li2  1  0.25000  0.25000  0.50000  1
 Li  Li3  1  0.25000  0.75000  0.50000  1
 Li  Li4  1  0.75000  0.75000  0.50000  1
 O  O1  1  0.50000  0.69365  0.20926  1
 O  O2  1  0.80635  0.00000  0.20926  1
 O  O3  1  0.50000  0.00000  0.67068  1
 O  O4  1  0.19365  0.00000  0.20926  1
 O  O5  1  0.50000  0.30635  0.20926  1
 O  O6  1  0.69365  0.50000  0.79074  1
 O  O7  1  0.30635  0.50000  0.79074  1
 O  O8  1  0.00000  0.19365  0.79074  1
 O  O9  1  0.00000  0.50000  0.32932  1
 O  O10  1  0.00000  0.80635  0.79074  1
 P  P1  1  0.50000  0.50000  0.00000  1
 P  P2  1  0.00000  0.00000  0.00000  1
