CIF file written using JARVIS-Tools package.
data_Cu2HgGeS4
_symmetry_space_group_name_H-M  'I-42m'
_cell_length_a       5.56151
_cell_length_b       5.56151
_cell_length_c       6.59651
_cell_angle_alpha    114.933
_cell_angle_beta     114.933
_cell_angle_gamma    89.9999

_symmetry_Int_Tables_number  121
_chemical_formula_structural  Cu2HgGeS4
_chemical_formula_sum  Cu2HgGeS4
_cell_volume  163.8106773653354
_cell_formula_units_Z  1
loop_
  _symmetry_equiv_pos_site_id
 _symmetry_equiv_pos_as_xyz
 1  'x, y, z'
loop_
 _atom_site_type_symbol
 _atom_site_label
 _atom_site_symmetry_multiplicity
 _atom_site_fract_x
 _atom_site_fract_y
 _atom_site_fract_z
 _atom_site_fract_occupancy
 Cu  Cu1  1  0.75000  0.25000  0.50000  1
 Cu  Cu2  1  0.25000  0.75000  0.50000  1
 Ge  Ge1  1  0.50000  0.50000  0.00000  1
 Hg  Hg1  1  0.00000  0.00000  0.00000  1
 S  S1  1  0.86166  0.86166  0.27165  1
 S  S2  1  0.59000  0.13834  0.72835  1
 S  S3  1  0.41000  0.41000  0.27165  1
 S  S4  1  0.13834  0.59000  0.72835  1
