CIF file written using JARVIS-Tools package.
data_Hf2CoP
_symmetry_space_group_name_H-M  'P2_1/m'
_cell_length_a       5.18145
_cell_length_b       3.59932
_cell_length_c       7.37136
_cell_angle_alpha    90
_cell_angle_beta     109.617
_cell_angle_gamma    90

_symmetry_Int_Tables_number  11
_chemical_formula_structural  Hf2CoP
_chemical_formula_sum  Hf4Co2P2
_cell_volume  129.49427287967978
_cell_formula_units_Z  2
loop_
  _symmetry_equiv_pos_site_id
 _symmetry_equiv_pos_as_xyz
 1  'x, y, z'
loop_
 _atom_site_type_symbol
 _atom_site_label
 _atom_site_symmetry_multiplicity
 _atom_site_fract_x
 _atom_site_fract_y
 _atom_site_fract_z
 _atom_site_fract_occupancy
 Co  Co1  1  0.36094  0.75000  0.70843  1
 Co  Co2  1  0.63906  0.25000  0.29157  1
 Hf  Hf1  1  0.77090  0.75000  0.56400  1
 Hf  Hf2  1  0.22910  0.25000  0.43600  1
 Hf  Hf3  1  0.29600  0.75000  0.08216  1
 Hf  Hf4  1  0.70400  0.25000  0.91784  1
 P  P1  1  0.86431  0.75000  0.20881  1
 P  P2  1  0.13569  0.25000  0.79119  1
