CIF file written using JARVIS-Tools package.
data_GaAs
_symmetry_space_group_name_H-M  'P6_3mc'
_cell_length_a       4.03673
_cell_length_b       4.03673
_cell_length_c       6.66612
_cell_angle_alpha    90
_cell_angle_beta     90
_cell_angle_gamma    120

_symmetry_Int_Tables_number  186
_chemical_formula_structural  GaAs
_chemical_formula_sum  Ga2As2
_cell_volume  94.07265232696213
_cell_formula_units_Z  2
loop_
  _symmetry_equiv_pos_site_id
 _symmetry_equiv_pos_as_xyz
 1  'x, y, z'
loop_
 _atom_site_type_symbol
 _atom_site_label
 _atom_site_symmetry_multiplicity
 _atom_site_fract_x
 _atom_site_fract_y
 _atom_site_fract_z
 _atom_site_fract_occupancy
 As  As1  1  0.66667  0.33333  0.62616  1
 As  As2  1  0.33333  0.66667  0.12616  1
 Ga  Ga1  1  0.66667  0.33333  -0.00016  1
 Ga  Ga2  1  0.33333  0.66667  0.49984  1
