CIF file written using JARVIS-Tools package.
data_CrCdF6
_symmetry_space_group_name_H-M  'R-3'
_cell_length_a       5.57748
_cell_length_b       5.57748
_cell_length_c       5.57748
_cell_angle_alpha    54.0527
_cell_angle_beta     54.0527
_cell_angle_gamma    54.0528

_symmetry_Int_Tables_number  148
_chemical_formula_structural  CrCdF6
_chemical_formula_sum  CrCdF6
_cell_volume  105.64734991207153
_cell_formula_units_Z  1
loop_
  _symmetry_equiv_pos_site_id
 _symmetry_equiv_pos_as_xyz
 1  'x, y, z'
loop_
 _atom_site_type_symbol
 _atom_site_label
 _atom_site_symmetry_multiplicity
 _atom_site_fract_x
 _atom_site_fract_y
 _atom_site_fract_z
 _atom_site_fract_occupancy
 Cd  Cd1  1  0.50000  0.50000  0.50000  1
 Cr  Cr1  1  0.00000  0.00000  0.00000  1
 F  F1  1  0.37723  0.06205  0.78572  1
 F  F2  1  0.06205  0.78572  0.37723  1
 F  F3  1  0.21428  0.62277  0.93795  1
 F  F4  1  0.93795  0.21428  0.62277  1
 F  F5  1  0.62277  0.93795  0.21428  1
 F  F6  1  0.78572  0.37723  0.06205  1
