CIF file written using JARVIS-Tools package.
data_YbAu4
_symmetry_space_group_name_H-M  'I4/m'
_cell_length_a       4.24941
_cell_length_b       5.18673
_cell_length_c       5.18673
_cell_angle_alpha    80.3397
_cell_angle_beta     65.8176
_cell_angle_gamma    65.8177

_symmetry_Int_Tables_number  87
_chemical_formula_structural  YbAu4
_chemical_formula_sum  YbAu4
_cell_volume  95.13491227646726
_cell_formula_units_Z  1
loop_
  _symmetry_equiv_pos_site_id
 _symmetry_equiv_pos_as_xyz
 1  'x, y, z'
loop_
 _atom_site_type_symbol
 _atom_site_label
 _atom_site_symmetry_multiplicity
 _atom_site_fract_x
 _atom_site_fract_y
 _atom_site_fract_z
 _atom_site_fract_occupancy
 Au  Au1  1  0.59855  0.60095  0.20195  1
 Au  Au2  1  0.40145  0.39905  0.79805  1
 Au  Au3  1  0.80050  0.79805  0.60095  1
 Au  Au4  1  0.19950  0.20195  0.39905  1
 Yb  Yb1  1  0.00000  0.00000  0.00000  1
