CIF file written using JARVIS-Tools package.
data_C
_symmetry_space_group_name_H-M  'Ia-3'
_cell_length_a       3.88408
_cell_length_b       3.88408
_cell_length_c       3.88408
_cell_angle_alpha    109.471
_cell_angle_beta     109.471
_cell_angle_gamma    109.471

_symmetry_Int_Tables_number  206
_chemical_formula_structural  C
_chemical_formula_sum  C8
_cell_volume  45.107015773824656
_cell_formula_units_Z  8
loop_
  _symmetry_equiv_pos_site_id
 _symmetry_equiv_pos_as_xyz
 1  'x, y, z'
loop_
 _atom_site_type_symbol
 _atom_site_label
 _atom_site_symmetry_multiplicity
 _atom_site_fract_x
 _atom_site_fract_y
 _atom_site_fract_z
 _atom_site_fract_occupancy
 C  C1  1  0.18707  0.18707  0.18707  1
 C  C2  1  -0.00000  0.31293  0.50000  1
 C  C3  1  0.50000  0.00000  0.31293  1
 C  C4  1  0.31293  0.50000  0.00000  1
 C  C5  1  0.81293  0.81293  0.81293  1
 C  C6  1  0.00000  0.68707  0.50000  1
 C  C7  1  0.50000  0.00000  0.68707  1
 C  C8  1  0.68707  0.50000  -0.00000  1
