CIF file written using JARVIS-Tools package.
data_TaNO
_symmetry_space_group_name_H-M  'P6/mmm'
_cell_length_a       6.68069
_cell_length_b       6.68026
_cell_length_c       3.92359
_cell_angle_alpha    90
_cell_angle_beta     90
_cell_angle_gamma    120.002

_symmetry_Int_Tables_number  191
_chemical_formula_structural  TaNO
_chemical_formula_sum  Ta3N3O3
_cell_volume  151.642057324046
_cell_formula_units_Z  3
loop_
  _symmetry_equiv_pos_site_id
 _symmetry_equiv_pos_as_xyz
 1  'x, y, z'
loop_
 _atom_site_type_symbol
 _atom_site_label
 _atom_site_symmetry_multiplicity
 _atom_site_fract_x
 _atom_site_fract_y
 _atom_site_fract_z
 _atom_site_fract_occupancy
 N  N1  1  -0.00000  0.50000  0.00000  1
 N  N2  1  0.50000  0.50000  0.00000  1
 N  N3  1  0.50000  -0.00000  0.00000  1
 O  O1  1  0.66669  0.33338  0.50000  1
 O  O2  1  0.33331  0.66662  0.50000  1
 O  O3  1  0.00000  0.00000  0.50000  1
 Ta  Ta1  1  0.33333  0.66666  0.00000  1
 Ta  Ta2  1  1.00000  0.99999  0.00000  1
 Ta  Ta3  1  0.66667  0.33334  0.00000  1
