CIF file written using JARVIS-Tools package.
data_LaAgSO
_symmetry_space_group_name_H-M  'P4/nmm'
_cell_length_a       4.07779
_cell_length_b       4.07779
_cell_length_c       9.04283
_cell_angle_alpha    90
_cell_angle_beta     90
_cell_angle_gamma    90

_symmetry_Int_Tables_number  129
_chemical_formula_structural  LaAgSO
_chemical_formula_sum  La2Ag2S2O2
_cell_volume  150.36773009310303
_cell_formula_units_Z  2
loop_
  _symmetry_equiv_pos_site_id
 _symmetry_equiv_pos_as_xyz
 1  'x, y, z'
loop_
 _atom_site_type_symbol
 _atom_site_label
 _atom_site_symmetry_multiplicity
 _atom_site_fract_x
 _atom_site_fract_y
 _atom_site_fract_z
 _atom_site_fract_occupancy
 Ag  Ag1  1  0.00000  0.00000  0.50000  1
 Ag  Ag2  1  0.50000  0.50000  0.50000  1
 La  La1  1  0.50000  0.00000  0.86316  1
 La  La2  1  0.00000  0.50000  0.13684  1
 O  O1  1  0.50000  0.50000  0.00000  1
 O  O2  1  0.00000  0.00000  0.00000  1
 S  S1  1  0.50000  0.00000  0.30502  1
 S  S2  1  0.00000  0.50000  0.69498  1
