CIF file written using JARVIS-Tools package.
data_CeAl3Ni2
_symmetry_space_group_name_H-M  'P6/mmm'
_cell_length_a       5.29866
_cell_length_b       5.29866
_cell_length_c       4.03388
_cell_angle_alpha    90
_cell_angle_beta     90
_cell_angle_gamma    120

_symmetry_Int_Tables_number  191
_chemical_formula_structural  CeAl3Ni2
_chemical_formula_sum  CeAl3Ni2
_cell_volume  98.08132886862116
_cell_formula_units_Z  1
loop_
  _symmetry_equiv_pos_site_id
 _symmetry_equiv_pos_as_xyz
 1  'x, y, z'
loop_
 _atom_site_type_symbol
 _atom_site_label
 _atom_site_symmetry_multiplicity
 _atom_site_fract_x
 _atom_site_fract_y
 _atom_site_fract_z
 _atom_site_fract_occupancy
 Al  Al1  1  -0.00000  0.50000  0.50000  1
 Al  Al2  1  0.50000  0.50000  0.50000  1
 Al  Al3  1  0.50000  -0.00000  0.50000  1
 Ce  Ce1  1  0.00000  0.00000  0.00000  1
 Ni  Ni1  1  0.66667  0.33333  0.00000  1
 Ni  Ni2  1  0.33333  0.66667  0.00000  1
