CIF file written using JARVIS-Tools package.
data_KAg2AsO4
_symmetry_space_group_name_H-M  'I-42m'
_cell_length_a       5.4776
_cell_length_b       5.47759
_cell_length_c       5.47759
_cell_angle_alpha    100.895
_cell_angle_beta     113.922
_cell_angle_gamma    113.922

_symmetry_Int_Tables_number  121
_chemical_formula_structural  KAg2AsO4
_chemical_formula_sum  KAg2AsO4
_cell_volume  124.43680234801512
_cell_formula_units_Z  1
loop_
  _symmetry_equiv_pos_site_id
 _symmetry_equiv_pos_as_xyz
 1  'x, y, z'
loop_
 _atom_site_type_symbol
 _atom_site_label
 _atom_site_symmetry_multiplicity
 _atom_site_fract_x
 _atom_site_fract_y
 _atom_site_fract_z
 _atom_site_fract_occupancy
 Ag  Ag1  1  0.50000  0.75000  0.25000  1
 Ag  Ag2  1  0.50000  0.25000  0.75000  1
 As  As1  1  0.00000  0.00000  0.00000  1
 K  K1  1  0.00000  0.50000  0.50000  1
 O  O1  1  0.00000  0.68944  0.02743  1
 O  O2  1  0.66202  0.97257  0.97257  1
 O  O3  1  0.33798  0.31056  0.31056  1
 O  O4  1  -0.00000  0.02743  0.68944  1
