CIF file written using JARVIS-Tools package.
data_BaMnO3
_symmetry_space_group_name_H-M  'P6_3/mmc'
_cell_length_a       5.73185
_cell_length_b       5.73185
_cell_length_c       4.89175
_cell_angle_alpha    90
_cell_angle_beta     90
_cell_angle_gamma    120

_symmetry_Int_Tables_number  194
_chemical_formula_structural  BaMnO3
_chemical_formula_sum  Ba2Mn2O6
_cell_volume  139.18234770628678
_cell_formula_units_Z  2
loop_
  _symmetry_equiv_pos_site_id
 _symmetry_equiv_pos_as_xyz
 1  'x, y, z'
loop_
 _atom_site_type_symbol
 _atom_site_label
 _atom_site_symmetry_multiplicity
 _atom_site_fract_x
 _atom_site_fract_y
 _atom_site_fract_z
 _atom_site_fract_occupancy
 Ba  Ba1  1  0.33333  0.66667  0.75000  1
 Ba  Ba2  1  0.66667  0.33333  0.25000  1
 Mn  Mn1  1  0.00000  0.00000  0.50000  1
 Mn  Mn2  1  0.00000  0.00000  0.00000  1
 O  O1  1  0.14898  0.29796  0.25000  1
 O  O2  1  0.29796  0.14898  0.75000  1
 O  O3  1  0.85102  0.14898  0.75000  1
 O  O4  1  0.14898  0.85102  0.25000  1
 O  O5  1  0.85102  0.70204  0.75000  1
 O  O6  1  0.70204  0.85102  0.25000  1
