CIF file written using JARVIS-Tools package.
data_SiC
_symmetry_space_group_name_H-M  'P6_3mc'
_cell_length_a       3.09722
_cell_length_b       3.09722
_cell_length_c       5.0863
_cell_angle_alpha    90
_cell_angle_beta     90
_cell_angle_gamma    120

_symmetry_Int_Tables_number  186
_chemical_formula_structural  SiC
_chemical_formula_sum  Si2C2
_cell_volume  42.25488378987602
_cell_formula_units_Z  2
loop_
  _symmetry_equiv_pos_site_id
 _symmetry_equiv_pos_as_xyz
 1  'x, y, z'
loop_
 _atom_site_type_symbol
 _atom_site_label
 _atom_site_symmetry_multiplicity
 _atom_site_fract_x
 _atom_site_fract_y
 _atom_site_fract_z
 _atom_site_fract_occupancy
 C  C1  1  0.33333  0.66667  0.87534  1
 C  C2  1  0.66667  0.33333  0.37534  1
 Si  Si1  1  0.33333  0.66667  0.49966  1
 Si  Si2  1  0.66667  0.33333  0.99966  1
