CIF file written using JARVIS-Tools package.
data_BaYCoCuO5
_symmetry_space_group_name_H-M  'P4mm'
_cell_length_a       3.87503
_cell_length_b       3.87503
_cell_length_c       7.5192
_cell_angle_alpha    90
_cell_angle_beta     90
_cell_angle_gamma    90

_symmetry_Int_Tables_number  99
_chemical_formula_structural  BaYCoCuO5
_chemical_formula_sum  BaYCoCuO5
_cell_volume  112.90707021063247
_cell_formula_units_Z  1
loop_
  _symmetry_equiv_pos_site_id
 _symmetry_equiv_pos_as_xyz
 1  'x, y, z'
loop_
 _atom_site_type_symbol
 _atom_site_label
 _atom_site_symmetry_multiplicity
 _atom_site_fract_x
 _atom_site_fract_y
 _atom_site_fract_z
 _atom_site_fract_occupancy
 Ba  Ba1  1  0.00000  0.00000  0.97184  1
 Co  Co1  1  0.50000  0.50000  0.69658  1
 Cu  Cu1  1  0.50000  0.50000  0.24312  1
 O  O1  1  0.00000  0.50000  0.65468  1
 O  O2  1  0.50000  0.00000  0.65468  1
 O  O3  1  0.00000  0.50000  0.27834  1
 O  O4  1  0.50000  0.00000  0.27834  1
 O  O5  1  0.50000  0.50000  0.94885  1
 Y  Y1  1  0.00000  0.00000  0.46150  1
