CIF file written using JARVIS-Tools package.
data_Y3Sb4Au3
_symmetry_space_group_name_H-M  'I-43d'
_cell_length_a       8.60331
_cell_length_b       8.60332
_cell_length_c       8.60331
_cell_angle_alpha    109.471
_cell_angle_beta     109.471
_cell_angle_gamma    109.471

_symmetry_Int_Tables_number  220
_chemical_formula_structural  Y3Sb4Au3
_chemical_formula_sum  Y6Sb8Au6
_cell_volume  490.2021992139871
_cell_formula_units_Z  2
loop_
  _symmetry_equiv_pos_site_id
 _symmetry_equiv_pos_as_xyz
 1  'x, y, z'
loop_
 _atom_site_type_symbol
 _atom_site_label
 _atom_site_symmetry_multiplicity
 _atom_site_fract_x
 _atom_site_fract_y
 _atom_site_fract_z
 _atom_site_fract_occupancy
 Au  Au1  1  0.12500  0.87500  0.25000  1
 Au  Au2  1  0.87500  0.25000  0.12500  1
 Au  Au3  1  0.62500  0.75000  0.37500  1
 Au  Au4  1  0.37500  0.62500  0.75000  1
 Au  Au5  1  0.75000  0.37500  0.62500  1
 Au  Au6  1  0.25000  0.12500  0.87500  1
 Sb  Sb1  1  0.32036  0.50000  0.00000  1
 Sb  Sb2  1  0.50000  0.00000  0.32036  1
 Sb  Sb3  1  0.00000  0.32036  0.50000  1
 Sb  Sb4  1  0.50000  0.00000  0.82036  1
 Sb  Sb5  1  0.67964  0.67964  0.67964  1
 Sb  Sb6  1  0.17964  0.17964  0.17964  1
 Sb  Sb7  1  0.82036  0.50000  0.00000  1
 Sb  Sb8  1  0.00000  0.82036  0.50000  1
 Y  Y1  1  0.75000  0.87500  0.12500  1
 Y  Y2  1  0.62500  0.37500  0.25000  1
 Y  Y3  1  0.87500  0.12500  0.75000  1
 Y  Y4  1  0.12500  0.75000  0.87500  1
 Y  Y5  1  0.37500  0.25000  0.62500  1
 Y  Y6  1  0.25000  0.62500  0.37500  1
