CIF file written using JARVIS-Tools package.
data_MgMoF6
_symmetry_space_group_name_H-M  'R-3'
_cell_length_a       5.50393
_cell_length_b       5.50393
_cell_length_c       5.50392
_cell_angle_alpha    55.4853
_cell_angle_beta     55.4853
_cell_angle_gamma    55.4853

_symmetry_Int_Tables_number  148
_chemical_formula_structural  MgMoF6
_chemical_formula_sum  MgMoF6
_cell_volume  105.53789048950223
_cell_formula_units_Z  1
loop_
  _symmetry_equiv_pos_site_id
 _symmetry_equiv_pos_as_xyz
 1  'x, y, z'
loop_
 _atom_site_type_symbol
 _atom_site_label
 _atom_site_symmetry_multiplicity
 _atom_site_fract_x
 _atom_site_fract_y
 _atom_site_fract_z
 _atom_site_fract_occupancy
 F  F1  1  0.37199  0.12496  0.75230  1
 F  F2  1  0.12496  0.75230  0.37199  1
 F  F3  1  0.24770  0.62801  0.87504  1
 F  F4  1  0.87504  0.24770  0.62801  1
 F  F5  1  0.62801  0.87504  0.24770  1
 F  F6  1  0.75230  0.37199  0.12496  1
 Mg  Mg1  1  0.50000  0.50000  0.50000  1
 Mo  Mo1  1  0.00000  0.00000  0.00000  1
