CIF file written using JARVIS-Tools package.
data_Ca4PtO6
_symmetry_space_group_name_H-M  'R-3c'
_cell_length_a       6.58302
_cell_length_b       6.58303
_cell_length_c       6.58302
_cell_angle_alpha    90.6116
_cell_angle_beta     90.6116
_cell_angle_gamma    90.6116

_symmetry_Int_Tables_number  167
_chemical_formula_structural  Ca4PtO6
_chemical_formula_sum  Ca8Pt2O2
_cell_volume  285.23414396356577
_cell_formula_units_Z  2
loop_
  _symmetry_equiv_pos_site_id
 _symmetry_equiv_pos_as_xyz
 1  'x, y, z'
loop_
 _atom_site_type_symbol
 _atom_site_label
 _atom_site_symmetry_multiplicity
 _atom_site_fract_x
 _atom_site_fract_y
 _atom_site_fract_z
 _atom_site_fract_occupancy
 Ca  Ca1  1  0.75000  0.75000  0.75000  1
 Ca  Ca2  1  0.25000  0.25000  0.25000  1
 Ca  Ca3  1  0.61363  0.88637  0.25000  1
 Ca  Ca4  1  0.25000  0.61363  0.88637  1
 Ca  Ca5  1  0.88637  0.25000  0.61363  1
 Ca  Ca6  1  0.38637  0.11363  0.75000  1
 Ca  Ca7  1  0.75000  0.38637  0.11363  1
 Ca  Ca8  1  0.11363  0.75000  0.38637  1
 O  O1  1  0.42862  0.55405  0.20135  1
 O  O2  1  0.55405  0.20135  0.42862  1
 O  O3  1  0.94595  0.07138  0.29865  1
 O  O4  1  0.07138  0.29865  0.94595  1
 O  O5  1  0.29865  0.94595  0.07138  1
 O  O6  1  0.79865  0.57138  0.44595  1
 O  O7  1  0.92862  0.70135  0.05405  1
 O  O8  1  0.44595  0.79865  0.57138  1
 O  O9  1  0.20135  0.42862  0.55405  1
 O  O10  1  0.05405  0.92862  0.70135  1
 O  O11  1  0.57138  0.44595  0.79865  1
 O  O12  1  0.70135  0.05405  0.92862  1
 Pt  Pt1  1  0.50000  0.50000  0.50000  1
 Pt  Pt2  1  0.00000  0.00000  0.00000  1
