CIF file written using JARVIS-Tools package.
data_TbAsO4
_symmetry_space_group_name_H-M  'I4_1/amd'
_cell_length_a       5.96858
_cell_length_b       5.96858
_cell_length_c       5.96858
_cell_angle_alpha    106.65
_cell_angle_beta     106.65
_cell_angle_gamma    115.274

_symmetry_Int_Tables_number  141
_chemical_formula_structural  TbAsO4
_chemical_formula_sum  Tb2As2O8
_cell_volume  162.4058480295496
_cell_formula_units_Z  2
loop_
  _symmetry_equiv_pos_site_id
 _symmetry_equiv_pos_as_xyz
 1  'x, y, z'
loop_
 _atom_site_type_symbol
 _atom_site_label
 _atom_site_symmetry_multiplicity
 _atom_site_fract_x
 _atom_site_fract_y
 _atom_site_fract_z
 _atom_site_fract_occupancy
 As  As1  1  0.87500  0.12500  0.75000  1
 As  As2  1  0.12500  0.87500  0.25000  1
 O  O1  1  0.30096  0.23294  0.43198  1
 O  O2  1  0.86898  0.30096  0.56802  1
 O  O3  1  0.23294  0.30096  0.93198  1
 O  O4  1  0.30096  0.86898  0.06802  1
 O  O5  1  0.13102  0.69904  0.43198  1
 O  O6  1  0.69904  0.76706  0.56802  1
 O  O7  1  0.69904  0.13102  0.93198  1
 O  O8  1  0.76706  0.69904  0.06802  1
 Tb  Tb1  1  0.37500  0.62500  0.75000  1
 Tb  Tb2  1  0.62500  0.37500  0.25000  1
