CIF file written using JARVIS-Tools package.
data_Ti2Bi
_symmetry_space_group_name_H-M  'I4/mmm'
_cell_length_a       4.22632
_cell_length_b       4.22631
_cell_length_c       7.64185
_cell_angle_alpha    106.053
_cell_angle_beta     106.053
_cell_angle_gamma    89.9999

_symmetry_Int_Tables_number  139
_chemical_formula_structural  Ti2Bi
_chemical_formula_sum  Ti4Bi2
_cell_volume  125.62638188085826
_cell_formula_units_Z  2
loop_
  _symmetry_equiv_pos_site_id
 _symmetry_equiv_pos_as_xyz
 1  'x, y, z'
loop_
 _atom_site_type_symbol
 _atom_site_label
 _atom_site_symmetry_multiplicity
 _atom_site_fract_x
 _atom_site_fract_y
 _atom_site_fract_z
 _atom_site_fract_occupancy
 Bi  Bi1  1  0.65128  0.65128  0.30256  1
 Bi  Bi2  1  0.34872  0.34872  0.69744  1
 Ti  Ti1  1  0.86364  0.86364  0.72728  1
 Ti  Ti2  1  0.50000  -0.00000  -0.00000  1
 Ti  Ti3  1  -0.00000  0.50000  -0.00000  1
 Ti  Ti4  1  0.13636  0.13636  0.27272  1
