CIF file written using JARVIS-Tools package.
data_Sr4IrO6
_symmetry_space_group_name_H-M  'R-3c'
_cell_length_a       6.9109
_cell_length_b       6.9109
_cell_length_c       6.9109
_cell_angle_alpha    90.1426
_cell_angle_beta     90.1427
_cell_angle_gamma    90.1427

_symmetry_Int_Tables_number  167
_chemical_formula_structural  Sr4IrO6
_chemical_formula_sum  Sr8Ir2O2
_cell_volume  330.0650221493807
_cell_formula_units_Z  2
loop_
  _symmetry_equiv_pos_site_id
 _symmetry_equiv_pos_as_xyz
 1  'x, y, z'
loop_
 _atom_site_type_symbol
 _atom_site_label
 _atom_site_symmetry_multiplicity
 _atom_site_fract_x
 _atom_site_fract_y
 _atom_site_fract_z
 _atom_site_fract_occupancy
 Ir  Ir1  1  0.50000  0.50000  0.50000  1
 Ir  Ir2  1  0.00000  0.00000  0.00000  1
 O  O1  1  0.07319  0.28586  0.94130  1
 O  O2  1  0.57319  0.44130  0.78586  1
 O  O3  1  0.44130  0.78586  0.57319  1
 O  O4  1  0.05870  0.92681  0.71414  1
 O  O5  1  0.92681  0.71414  0.05870  1
 O  O6  1  0.71414  0.05870  0.92681  1
 O  O7  1  0.21414  0.42681  0.55870  1
 O  O8  1  0.42681  0.55870  0.21414  1
 O  O9  1  0.55870  0.21414  0.42681  1
 O  O10  1  0.28586  0.94130  0.07319  1
 O  O11  1  0.94130  0.07319  0.28586  1
 O  O12  1  0.78586  0.57319  0.44130  1
 Sr  Sr1  1  0.25000  0.25000  0.25000  1
 Sr  Sr2  1  0.75000  0.75000  0.75000  1
 Sr  Sr3  1  0.11612  0.75000  0.38388  1
 Sr  Sr4  1  0.75000  0.38388  0.11612  1
 Sr  Sr5  1  0.38388  0.11612  0.75000  1
 Sr  Sr6  1  0.88388  0.25000  0.61612  1
 Sr  Sr7  1  0.25000  0.61612  0.88388  1
 Sr  Sr8  1  0.61612  0.88388  0.25000  1
