CIF file written using JARVIS-Tools package.
data_SrMnSn
_symmetry_space_group_name_H-M  'P4/nmm'
_cell_length_a       4.6947
_cell_length_b       4.6947
_cell_length_c       7.46607
_cell_angle_alpha    90
_cell_angle_beta     90
_cell_angle_gamma    90

_symmetry_Int_Tables_number  129
_chemical_formula_structural  SrMnSn
_chemical_formula_sum  Sr2Mn2Sn2
_cell_volume  164.55363801491265
_cell_formula_units_Z  2
loop_
  _symmetry_equiv_pos_site_id
 _symmetry_equiv_pos_as_xyz
 1  'x, y, z'
loop_
 _atom_site_type_symbol
 _atom_site_label
 _atom_site_symmetry_multiplicity
 _atom_site_fract_x
 _atom_site_fract_y
 _atom_site_fract_z
 _atom_site_fract_occupancy
 Mn  Mn1  1  0.00000  0.00000  0.00000  1
 Mn  Mn2  1  0.50000  0.50000  0.00000  1
 Sn  Sn1  1  0.00000  0.50000  0.79847  1
 Sn  Sn2  1  0.50000  0.00000  0.20153  1
 Sr  Sr1  1  0.00000  0.50000  0.32410  1
 Sr  Sr2  1  0.50000  0.00000  0.67590  1
