CIF file written using JARVIS-Tools package.
data_CrSbO4
_symmetry_space_group_name_H-M  'P2/m'
_cell_length_a       4.70678
_cell_length_b       9.44776
_cell_length_c       8.91744
_cell_angle_alpha    19.2869
_cell_angle_beta     33.7086
_cell_angle_gamma    38.2622

_symmetry_Int_Tables_number  10
_chemical_formula_structural  CrSbO4
_chemical_formula_sum  CrSbO4
_cell_volume  72.6890613796552
_cell_formula_units_Z  1
loop_
  _symmetry_equiv_pos_site_id
 _symmetry_equiv_pos_as_xyz
 1  'x, y, z'
loop_
 _atom_site_type_symbol
 _atom_site_label
 _atom_site_symmetry_multiplicity
 _atom_site_fract_x
 _atom_site_fract_y
 _atom_site_fract_z
 _atom_site_fract_occupancy
 Cr  Cr1  1  0.50000  1.00000  0.50000  1
 O  O1  1  0.24106  -0.00001  0.24411  1
 O  O2  1  0.23963  0.49999  0.23604  1
 O  O3  1  0.75894  0.00001  0.75589  1
 O  O4  1  0.76037  0.50001  0.76396  1
 Sb  Sb1  1  0.50000  0.50000  0.50000  1
