CIF file written using JARVIS-Tools package.
data_TbAlO3
_symmetry_space_group_name_H-M  'Pnma'
_cell_length_a       5.22823
_cell_length_b       5.35528
_cell_length_c       7.44571
_cell_angle_alpha    90
_cell_angle_beta     90
_cell_angle_gamma    90

_symmetry_Int_Tables_number  62
_chemical_formula_structural  TbAlO3
_chemical_formula_sum  Tb4Al4O2
_cell_volume  208.46979075887705
_cell_formula_units_Z  4
loop_
  _symmetry_equiv_pos_site_id
 _symmetry_equiv_pos_as_xyz
 1  'x, y, z'
loop_
 _atom_site_type_symbol
 _atom_site_label
 _atom_site_symmetry_multiplicity
 _atom_site_fract_x
 _atom_site_fract_y
 _atom_site_fract_z
 _atom_site_fract_occupancy
 Al  Al1  1  0.50000  0.00000  0.00000  1
 Al  Al2  1  0.00000  0.50000  0.00000  1
 Al  Al3  1  0.00000  0.50000  0.50000  1
 Al  Al4  1  0.50000  0.00000  0.50000  1
 O  O1  1  0.91763  0.47982  0.25000  1
 O  O2  1  0.29152  0.29134  0.45638  1
 O  O3  1  0.58237  0.97982  0.25000  1
 O  O4  1  0.20848  0.79134  0.04362  1
 O  O5  1  0.70848  0.70866  0.95638  1
 O  O6  1  0.79152  0.20866  0.54362  1
 O  O7  1  0.20848  0.79134  0.45638  1
 O  O8  1  0.08237  0.52018  0.75000  1
 O  O9  1  0.29152  0.29134  0.04362  1
 O  O10  1  0.70848  0.70866  0.54362  1
 O  O11  1  0.41763  0.02018  0.75000  1
 O  O12  1  0.79152  0.20866  0.95638  1
 Tb  Tb1  1  0.98829  0.95006  0.75000  1
 Tb  Tb2  1  0.48829  0.54994  0.25000  1
 Tb  Tb3  1  0.51171  0.45006  0.75000  1
 Tb  Tb4  1  0.01171  0.04994  0.25000  1
