CIF file written using JARVIS-Tools package.
data_ScHO2
_symmetry_space_group_name_H-M  'Cmc2_1'
_cell_length_a       6.66603
_cell_length_b       6.66603
_cell_length_c       4.04876
_cell_angle_alpha    90
_cell_angle_beta     90
_cell_angle_gamma    28.3132

_symmetry_Int_Tables_number  36
_chemical_formula_structural  ScHO2
_chemical_formula_sum  Sc2H2O4
_cell_volume  85.33002314194486
_cell_formula_units_Z  2
loop_
  _symmetry_equiv_pos_site_id
 _symmetry_equiv_pos_as_xyz
 1  'x, y, z'
loop_
 _atom_site_type_symbol
 _atom_site_label
 _atom_site_symmetry_multiplicity
 _atom_site_fract_x
 _atom_site_fract_y
 _atom_site_fract_z
 _atom_site_fract_occupancy
 H  H1  1  0.01521  0.01521  0.43536  1
 H  H2  1  0.98479  0.98479  0.93536  1
 O  O1  1  0.28544  0.28544  0.25008  1
 O  O2  1  0.71456  0.71456  0.75008  1
 O  O3  1  0.06888  0.06888  0.25486  1
 O  O4  1  0.93112  0.93112  0.75486  1
 Sc  Sc1  1  0.67558  0.67558  0.24910  1
 Sc  Sc2  1  0.32442  0.32442  0.74910  1
