CIF file written using JARVIS-Tools package.
data_Ho
_symmetry_space_group_name_H-M  'P6_3/mmc'
_cell_length_a       3.54942
_cell_length_b       3.54942
_cell_length_c       5.54696
_cell_angle_alpha    90
_cell_angle_beta     90
_cell_angle_gamma    119.998

_symmetry_Int_Tables_number  194
_chemical_formula_structural  Ho
_chemical_formula_sum  Ho2
_cell_volume  60.52141502694643
_cell_formula_units_Z  2
loop_
  _symmetry_equiv_pos_site_id
 _symmetry_equiv_pos_as_xyz
 1  'x, y, z'
loop_
 _atom_site_type_symbol
 _atom_site_label
 _atom_site_symmetry_multiplicity
 _atom_site_fract_x
 _atom_site_fract_y
 _atom_site_fract_z
 _atom_site_fract_occupancy
 Ho  Ho1  1  0.66669  0.33331  0.75000  1
 Ho  Ho2  1  0.33331  0.66669  0.25000  1
