CIF file written using JARVIS-Tools package.
data_MnB2
_symmetry_space_group_name_H-M  'P6/mmm'
_cell_length_a       2.98226
_cell_length_b       2.98229
_cell_length_c       2.95873
_cell_angle_alpha    90
_cell_angle_beta     90
_cell_angle_gamma    120

_symmetry_Int_Tables_number  191
_chemical_formula_structural  MnB2
_chemical_formula_sum  MnB2
_cell_volume  22.789372087244207
_cell_formula_units_Z  1
loop_
  _symmetry_equiv_pos_site_id
 _symmetry_equiv_pos_as_xyz
 1  'x, y, z'
loop_
 _atom_site_type_symbol
 _atom_site_label
 _atom_site_symmetry_multiplicity
 _atom_site_fract_x
 _atom_site_fract_y
 _atom_site_fract_z
 _atom_site_fract_occupancy
 B  B1  1  0.33329  0.66666  0.50000  1
 B  B2  1  0.66664  0.33334  0.50000  1
 Mn  Mn1  1  0.99997  -0.00000  0.00000  1
