CIF file written using JARVIS-Tools package.
data_Mo
_symmetry_space_group_name_H-M  'P6/mmm'
_cell_length_a       2.5231
_cell_length_b       2.77494
_cell_length_c       2.77494
_cell_angle_alpha    120
_cell_angle_beta     90
_cell_angle_gamma    90

_symmetry_Int_Tables_number  191
_chemical_formula_structural  Mo
_chemical_formula_sum  Mo
_cell_volume  16.82571104862575
_cell_formula_units_Z  1
loop_
  _symmetry_equiv_pos_site_id
 _symmetry_equiv_pos_as_xyz
 1  'x, y, z'
loop_
 _atom_site_type_symbol
 _atom_site_label
 _atom_site_symmetry_multiplicity
 _atom_site_fract_x
 _atom_site_fract_y
 _atom_site_fract_z
 _atom_site_fract_occupancy
 Mo  Mo1  1  0.50000  0.00000  0.00000  1
