CIF file written using JARVIS-Tools package.
data_SrHg2Pb
_symmetry_space_group_name_H-M  'Immm'
_cell_length_a       12.3729
_cell_length_b       12.7022
_cell_length_c       12.7022
_cell_angle_alpha    60.9093
_cell_angle_beta     60.8537
_cell_angle_gamma    60.8537

_symmetry_Int_Tables_number  71
_chemical_formula_structural  SrHg2Pb
_chemical_formula_sum  SrHg2Pb
_cell_volume  1439.3644825460428
_cell_formula_units_Z  1
loop_
  _symmetry_equiv_pos_site_id
 _symmetry_equiv_pos_as_xyz
 1  'x, y, z'
loop_
 _atom_site_type_symbol
 _atom_site_label
 _atom_site_symmetry_multiplicity
 _atom_site_fract_x
 _atom_site_fract_y
 _atom_site_fract_z
 _atom_site_fract_occupancy
 Hg  Hg1  1  0.73785  -0.00000  0.00000  1
 Hg  Hg2  1  0.26215  0.00000  -0.00000  1
 Pb  Pb1  1  0.50000  0.00000  0.00000  1
 Sr  Sr1  1  0.00000  0.00000  0.00000  1
