CIF file written using JARVIS-Tools package.
data_TbCd2
_symmetry_space_group_name_H-M  'P6/mmm'
_cell_length_a       4.95805
_cell_length_b       4.95809
_cell_length_c       3.40272
_cell_angle_alpha    90
_cell_angle_beta     90.0005
_cell_angle_gamma    120

_symmetry_Int_Tables_number  191
_chemical_formula_structural  TbCd2
_chemical_formula_sum  TbCd2
_cell_volume  72.44034704948523
_cell_formula_units_Z  1
loop_
  _symmetry_equiv_pos_site_id
 _symmetry_equiv_pos_as_xyz
 1  'x, y, z'
loop_
 _atom_site_type_symbol
 _atom_site_label
 _atom_site_symmetry_multiplicity
 _atom_site_fract_x
 _atom_site_fract_y
 _atom_site_fract_z
 _atom_site_fract_occupancy
 Cd  Cd1  1  0.66666  0.33333  0.49999  1
 Cd  Cd2  1  0.33334  0.66667  0.50001  1
 Tb  Tb1  1  0.00000  0.00000  0.00000  1
