CIF file written using JARVIS-Tools package.
data_Sn
_symmetry_space_group_name_H-M  'I4/mmm'
_cell_length_a       3.33683
_cell_length_b       3.33683
_cell_length_c       3.33683
_cell_angle_alpha    74.6769
_cell_angle_beta     61.8817
_cell_angle_gamma    105.334

_symmetry_Int_Tables_number  139
_chemical_formula_structural  Sn
_chemical_formula_sum  Sn
_cell_volume  28.105607511749866
_cell_formula_units_Z  1
loop_
  _symmetry_equiv_pos_site_id
 _symmetry_equiv_pos_as_xyz
 1  'x, y, z'
loop_
 _atom_site_type_symbol
 _atom_site_label
 _atom_site_symmetry_multiplicity
 _atom_site_fract_x
 _atom_site_fract_y
 _atom_site_fract_z
 _atom_site_fract_occupancy
 Sn  Sn1  1  0.00000  0.00000  0.00000  1
