CIF file written using JARVIS-Tools package.
data_LiSbAu2
_symmetry_space_group_name_H-M  'I4/mmm'
_cell_length_a       11.3502
_cell_length_b       6.30392
_cell_length_c       6.30392
_cell_angle_alpha    35.8642
_cell_angle_beta     25.8096
_cell_angle_gamma    25.8095

_symmetry_Int_Tables_number  139
_chemical_formula_structural  LiSbAu2
_chemical_formula_sum  LiSbAu2
_cell_volume  85.49938901419118
_cell_formula_units_Z  1
loop_
  _symmetry_equiv_pos_site_id
 _symmetry_equiv_pos_as_xyz
 1  'x, y, z'
loop_
 _atom_site_type_symbol
 _atom_site_label
 _atom_site_symmetry_multiplicity
 _atom_site_fract_x
 _atom_site_fract_y
 _atom_site_fract_z
 _atom_site_fract_occupancy
 Au  Au1  1  0.74939  -0.00000  0.00000  1
 Au  Au2  1  0.25061  0.00000  -0.00000  1
 Li  Li1  1  0.00000  0.00000  0.00000  1
 Sb  Sb1  1  0.50000  -0.00000  0.00000  1
