CIF file written using JARVIS-Tools package.
data_HgBiPb2
_symmetry_space_group_name_H-M  'Immm'
_cell_length_a       12.8699
_cell_length_b       7.26329
_cell_length_c       7.26427
_cell_angle_alpha    26.321
_cell_angle_beta     27.647
_cell_angle_gamma    27.6484

_symmetry_Int_Tables_number  71
_chemical_formula_structural  HgBiPb2
_chemical_formula_sum  HgBiPb2
_cell_volume  125.02537324667064
_cell_formula_units_Z  1
loop_
  _symmetry_equiv_pos_site_id
 _symmetry_equiv_pos_as_xyz
 1  'x, y, z'
loop_
 _atom_site_type_symbol
 _atom_site_label
 _atom_site_symmetry_multiplicity
 _atom_site_fract_x
 _atom_site_fract_y
 _atom_site_fract_z
 _atom_site_fract_occupancy
 Bi  Bi1  1  0.50000  0.00000  -0.00000  1
 Hg  Hg1  1  0.00000  0.00000  0.00000  1
 Pb  Pb1  1  0.75423  0.00012  -0.00007  1
 Pb  Pb2  1  0.24577  -0.00012  0.00007  1
