CIF file written using JARVIS-Tools package.
data_RbClO2
_symmetry_space_group_name_H-M  'Cmcm'
_cell_length_a       4.53328
_cell_length_b       4.53338
_cell_length_c       7.70263
_cell_angle_alpha    89.9985
_cell_angle_beta     89.9985
_cell_angle_gamma    90.3557

_symmetry_Int_Tables_number  63
_chemical_formula_structural  RbClO2
_chemical_formula_sum  Rb2Cl2O4
_cell_volume  158.29391837264913
_cell_formula_units_Z  2
loop_
  _symmetry_equiv_pos_site_id
 _symmetry_equiv_pos_as_xyz
 1  'x, y, z'
loop_
 _atom_site_type_symbol
 _atom_site_label
 _atom_site_symmetry_multiplicity
 _atom_site_fract_x
 _atom_site_fract_y
 _atom_site_fract_z
 _atom_site_fract_occupancy
 Cl  Cl1  1  0.46985  0.53015  0.75000  1
 Cl  Cl2  1  0.53015  0.46985  0.25000  1
 O  O1  1  0.87614  0.52677  0.25000  1
 O  O2  1  0.52677  0.87614  0.75000  1
 O  O3  1  0.47323  0.12386  0.25000  1
 O  O4  1  0.12386  0.47323  0.75000  1
 Rb  Rb1  1  0.00000  -0.00000  -0.00000  1
 Rb  Rb2  1  -0.00000  -0.00000  0.50000  1
