CIF file written using JARVIS-Tools package.
data_HoPd2
_symmetry_space_group_name_H-M  'I4/mmm'
_cell_length_a       3.95044
_cell_length_b       3.95044
_cell_length_c       4.98046
_cell_angle_alpha    113.365
_cell_angle_beta     113.365
_cell_angle_gamma    90

_symmetry_Int_Tables_number  139
_chemical_formula_structural  HoPd2
_chemical_formula_sum  HoPd2
_cell_volume  64.34883512390806
_cell_formula_units_Z  1
loop_
  _symmetry_equiv_pos_site_id
 _symmetry_equiv_pos_as_xyz
 1  'x, y, z'
loop_
 _atom_site_type_symbol
 _atom_site_label
 _atom_site_symmetry_multiplicity
 _atom_site_fract_x
 _atom_site_fract_y
 _atom_site_fract_z
 _atom_site_fract_occupancy
 Ho  Ho1  1  0.00000  0.00000  0.00000  1
 Pd  Pd1  1  0.25000  0.75000  0.50000  1
 Pd  Pd2  1  0.75000  0.25000  0.50000  1
