CIF file written using JARVIS-Tools package.
data_CdCuF4
_symmetry_space_group_name_H-M  'I4/mcm'
_cell_length_a       5.39155
_cell_length_b       5.39155
_cell_length_c       6.43539
_cell_angle_alpha    114.765
_cell_angle_beta     114.765
_cell_angle_gamma    90.0001

_symmetry_Int_Tables_number  140
_chemical_formula_structural  CdCuF4
_chemical_formula_sum  Cd2Cu2F8
_cell_volume  150.70912322100617
_cell_formula_units_Z  2
loop_
  _symmetry_equiv_pos_site_id
 _symmetry_equiv_pos_as_xyz
 1  'x, y, z'
loop_
 _atom_site_type_symbol
 _atom_site_label
 _atom_site_symmetry_multiplicity
 _atom_site_fract_x
 _atom_site_fract_y
 _atom_site_fract_z
 _atom_site_fract_occupancy
 Cd  Cd1  1  0.75000  0.75000  0.50000  1
 Cd  Cd2  1  0.25000  0.25000  0.50000  1
 Cu  Cu1  1  0.50000  -0.00000  0.00000  1
 Cu  Cu2  1  0.00000  0.50000  -0.00000  1
 F  F1  1  0.94620  0.44620  0.25560  1
 F  F2  1  0.69060  0.19060  0.74440  1
 F  F3  1  0.05380  0.55380  0.74440  1
 F  F4  1  0.19060  0.05380  0.74440  1
 F  F5  1  0.30940  0.80940  0.25560  1
 F  F6  1  0.44620  0.30940  0.25560  1
 F  F7  1  0.80940  0.94620  0.25560  1
 F  F8  1  0.55380  0.69060  0.74440  1
