CIF file written using JARVIS-Tools package.
data_Ag3Pd
_symmetry_space_group_name_H-M  'I4/mmm'
_cell_length_a       4.94638
_cell_length_b       4.94638
_cell_length_c       4.94638
_cell_angle_alpha    130.953
_cell_angle_beta     130.953
_cell_angle_gamma    71.8871

_symmetry_Int_Tables_number  139
_chemical_formula_structural  Ag3Pd
_chemical_formula_sum  Ag3Pd
_cell_volume  67.51762229368703
_cell_formula_units_Z  1
loop_
  _symmetry_equiv_pos_site_id
 _symmetry_equiv_pos_as_xyz
 1  'x, y, z'
loop_
 _atom_site_type_symbol
 _atom_site_label
 _atom_site_symmetry_multiplicity
 _atom_site_fract_x
 _atom_site_fract_y
 _atom_site_fract_z
 _atom_site_fract_occupancy
 Ag  Ag1  1  0.75000  0.25000  0.50000  1
 Ag  Ag2  1  0.25000  0.75000  0.50000  1
 Ag  Ag3  1  0.50000  0.50000  -0.00000  1
 Pd  Pd1  1  0.00000  0.00000  0.00000  1
