CIF file written using JARVIS-Tools package.
data_BaZnSb4O8
_symmetry_space_group_name_H-M  'P-31m'
_cell_length_a       6.10267
_cell_length_b       6.10267
_cell_length_c       7.15939
_cell_angle_alpha    90
_cell_angle_beta     90
_cell_angle_gamma    120

_symmetry_Int_Tables_number  162
_chemical_formula_structural  BaZnSb4O8
_chemical_formula_sum  BaZnSb4O8
_cell_volume  230.9124870507221
_cell_formula_units_Z  1
loop_
  _symmetry_equiv_pos_site_id
 _symmetry_equiv_pos_as_xyz
 1  'x, y, z'
loop_
 _atom_site_type_symbol
 _atom_site_label
 _atom_site_symmetry_multiplicity
 _atom_site_fract_x
 _atom_site_fract_y
 _atom_site_fract_z
 _atom_site_fract_occupancy
 Ba  Ba1  1  0.00000  0.00000  0.00000  1
 O  O1  1  0.71539  -0.00000  0.70137  1
 O  O2  1  -0.00000  0.71539  0.70137  1
 O  O3  1  0.28461  0.28461  0.70137  1
 O  O4  1  0.28461  0.00000  0.29863  1
 O  O5  1  0.71539  0.71539  0.29863  1
 O  O6  1  0.00000  0.28461  0.29863  1
 O  O7  1  0.33333  0.66667  0.00000  1
 O  O8  1  0.66667  0.33333  0.00000  1
 Sb  Sb1  1  0.33333  0.66667  0.71660  1
 Sb  Sb2  1  0.66667  0.33333  0.71660  1
 Sb  Sb3  1  0.33333  0.66667  0.28340  1
 Sb  Sb4  1  0.66667  0.33333  0.28340  1
 Zn  Zn1  1  0.00000  0.00000  0.50000  1
