CIF file written using JARVIS-Tools package.
data_HoS
_symmetry_space_group_name_H-M  'C2/m'
_cell_length_a       3.72847
_cell_length_b       3.72848
_cell_length_c       29.5739
_cell_angle_alpha    90.8286
_cell_angle_beta     90.8286
_cell_angle_gamma    89.9798

_symmetry_Int_Tables_number  12
_chemical_formula_structural  HoS
_chemical_formula_sum  Ho2S2
_cell_volume  411.0360537938821
_cell_formula_units_Z  2
loop_
  _symmetry_equiv_pos_site_id
 _symmetry_equiv_pos_as_xyz
 1  'x, y, z'
loop_
 _atom_site_type_symbol
 _atom_site_label
 _atom_site_symmetry_multiplicity
 _atom_site_fract_x
 _atom_site_fract_y
 _atom_site_fract_z
 _atom_site_fract_occupancy
 Ho  Ho1  1  0.99854  0.00664  0.84356  1
 Ho  Ho2  1  0.99336  0.00146  0.15644  1
 S  S1  1  0.49705  0.50515  0.83060  1
 S  S2  1  0.49485  0.50295  0.16940  1
