CIF file written using JARVIS-Tools package.
data_CuTe
_symmetry_space_group_name_H-M  'Fm-3m'
_cell_length_a       3.89759
_cell_length_b       3.89076
_cell_length_c       5.51091
_cell_angle_alpha    90
_cell_angle_beta     90
_cell_angle_gamma    90

_symmetry_Int_Tables_number  225
_chemical_formula_structural  CuTe
_chemical_formula_sum  Cu2Te2
_cell_volume  83.57061196806538
_cell_formula_units_Z  2
loop_
  _symmetry_equiv_pos_site_id
 _symmetry_equiv_pos_as_xyz
 1  'x, y, z'
loop_
 _atom_site_type_symbol
 _atom_site_label
 _atom_site_symmetry_multiplicity
 _atom_site_fract_x
 _atom_site_fract_y
 _atom_site_fract_z
 _atom_site_fract_occupancy
 Cu  Cu1  1  0.75000  0.74956  0.25000  1
 Cu  Cu2  1  0.25000  0.25044  0.75000  1
 Te  Te1  1  0.25000  0.24970  0.25000  1
 Te  Te2  1  0.75000  0.75030  0.75000  1
