CIF file written using JARVIS-Tools package.
data_TmScHg2
_symmetry_space_group_name_H-M  'Fm-3m'
_cell_length_a       5.06062
_cell_length_b       5.06058
_cell_length_c       5.06058
_cell_angle_alpha    59.9996
_cell_angle_beta     60
_cell_angle_gamma    60.0002

_symmetry_Int_Tables_number  225
_chemical_formula_structural  TmScHg2
_chemical_formula_sum  TmScHg2
_cell_volume  91.64080919165784
_cell_formula_units_Z  1
loop_
  _symmetry_equiv_pos_site_id
 _symmetry_equiv_pos_as_xyz
 1  'x, y, z'
loop_
 _atom_site_type_symbol
 _atom_site_label
 _atom_site_symmetry_multiplicity
 _atom_site_fract_x
 _atom_site_fract_y
 _atom_site_fract_z
 _atom_site_fract_occupancy
 Hg  Hg1  1  0.00000  1.00000  0.00000  1
 Hg  Hg2  1  0.50000  0.50000  0.50000  1
 Sc  Sc1  1  0.24999  0.25001  0.25000  1
 Tm  Tm1  1  0.75000  0.75000  0.75000  1
