CIF file written using JARVIS-Tools package.
data_CaMg
_symmetry_space_group_name_H-M  'Pm-3m'
_cell_length_a       5.56903
_cell_length_b       3.93286
_cell_length_c       5.56891
_cell_angle_alpha    90
_cell_angle_beta     90
_cell_angle_gamma    90

_symmetry_Int_Tables_number  221
_chemical_formula_structural  CaMg
_chemical_formula_sum  Ca2Mg2
_cell_volume  121.97147345950044
_cell_formula_units_Z  2
loop_
  _symmetry_equiv_pos_site_id
 _symmetry_equiv_pos_as_xyz
 1  'x, y, z'
loop_
 _atom_site_type_symbol
 _atom_site_label
 _atom_site_symmetry_multiplicity
 _atom_site_fract_x
 _atom_site_fract_y
 _atom_site_fract_z
 _atom_site_fract_occupancy
 Ca  Ca1  1  0.75000  0.50000  0.25004  1
 Ca  Ca2  1  0.25000  0.50000  0.74996  1
 Mg  Mg1  1  0.75000  0.00000  0.75009  1
 Mg  Mg2  1  0.25000  0.00000  0.24991  1
