CIF file written using JARVIS-Tools package.
data_Mn2AlO4
_symmetry_space_group_name_H-M  'Fd-3m'
_cell_length_a       5.94295
_cell_length_b       5.94295
_cell_length_c       5.94295
_cell_angle_alpha    60.0023
_cell_angle_beta     60.0023
_cell_angle_gamma    60.0023

_symmetry_Int_Tables_number  227
_chemical_formula_structural  Mn2AlO4
_chemical_formula_sum  Mn4Al2O8
_cell_volume  148.427407031167
_cell_formula_units_Z  2
loop_
  _symmetry_equiv_pos_site_id
 _symmetry_equiv_pos_as_xyz
 1  'x, y, z'
loop_
 _atom_site_type_symbol
 _atom_site_label
 _atom_site_symmetry_multiplicity
 _atom_site_fract_x
 _atom_site_fract_y
 _atom_site_fract_z
 _atom_site_fract_occupancy
 Al  Al1  1  0.62499  0.62499  0.62499  1
 Al  Al2  1  0.37501  0.37501  0.37501  1
 Mn  Mn1  1  -0.00000  0.50000  -0.00000  1
 Mn  Mn2  1  0.00000  0.00000  0.00000  1
 Mn  Mn3  1  0.50000  0.00000  0.00000  1
 Mn  Mn4  1  -0.00000  -0.00000  0.50000  1
 O  O1  1  0.24994  0.75001  0.75001  1
 O  O2  1  0.24999  0.24999  0.75006  1
 O  O3  1  0.24999  0.75006  0.24999  1
 O  O4  1  0.24998  0.24998  0.24998  1
 O  O5  1  0.75001  0.75001  0.24994  1
 O  O6  1  0.75006  0.24999  0.24999  1
 O  O7  1  0.75001  0.24994  0.75001  1
 O  O8  1  0.75002  0.75002  0.75002  1
