CIF file written using JARVIS-Tools package.
data_LiCo2O4
_symmetry_space_group_name_H-M  'P2/m'
_cell_length_a       4.85907
_cell_length_b       2.83084
_cell_length_c       5.00586
_cell_angle_alpha    90
_cell_angle_beta     109.43
_cell_angle_gamma    90

_symmetry_Int_Tables_number  10
_chemical_formula_structural  LiCo2O4
_chemical_formula_sum  LiCo2O4
_cell_volume  64.9351884003372
_cell_formula_units_Z  1
loop_
  _symmetry_equiv_pos_site_id
 _symmetry_equiv_pos_as_xyz
 1  'x, y, z'
loop_
 _atom_site_type_symbol
 _atom_site_label
 _atom_site_symmetry_multiplicity
 _atom_site_fract_x
 _atom_site_fract_y
 _atom_site_fract_z
 _atom_site_fract_occupancy
 Co  Co1  1  0.50000  0.00000  0.50000  1
 Co  Co2  1  -0.00000  0.50000  0.50000  1
 Li  Li1  1  0.00000  0.00000  0.00000  1
 O  O1  1  0.25890  0.50000  0.28949  1
 O  O2  1  0.74110  0.50000  0.71051  1
 O  O3  1  0.23323  0.00000  0.70349  1
 O  O4  1  0.76677  0.00000  0.29651  1
