CIF file written using JARVIS-Tools package.
data_CrCuS2
_symmetry_space_group_name_H-M  'R3m'
_cell_length_a       6.47122
_cell_length_b       6.47123
_cell_length_c       6.47122
_cell_angle_alpha    31.499
_cell_angle_beta     31.499
_cell_angle_gamma    31.499

_symmetry_Int_Tables_number  160
_chemical_formula_structural  CrCuS2
_chemical_formula_sum  CrCuS2
_cell_volume  65.67775491295153
_cell_formula_units_Z  1
loop_
  _symmetry_equiv_pos_site_id
 _symmetry_equiv_pos_as_xyz
 1  'x, y, z'
loop_
 _atom_site_type_symbol
 _atom_site_label
 _atom_site_symmetry_multiplicity
 _atom_site_fract_x
 _atom_site_fract_y
 _atom_site_fract_z
 _atom_site_fract_occupancy
 Cr  Cr1  1  0.00079  0.00079  0.00079  1
 Cu  Cu1  1  0.85376  0.85376  0.85376  1
 S  S1  1  0.25592  0.25592  0.25592  1
 S  S2  1  0.73413  0.73413  0.73413  1
