CIF file written using JARVIS-Tools package.
data_MgRh3
_symmetry_space_group_name_H-M  'Imm2'
_cell_length_a       2.7753
_cell_length_b       5.17741
_cell_length_c       4.74873
_cell_angle_alpha    62.7032
_cell_angle_beta     90
_cell_angle_gamma    74.4535

_symmetry_Int_Tables_number  44
_chemical_formula_structural  MgRh3
_chemical_formula_sum  MgRh3
_cell_volume  57.81201818456276
_cell_formula_units_Z  1
loop_
  _symmetry_equiv_pos_site_id
 _symmetry_equiv_pos_as_xyz
 1  'x, y, z'
loop_
 _atom_site_type_symbol
 _atom_site_label
 _atom_site_symmetry_multiplicity
 _atom_site_fract_x
 _atom_site_fract_y
 _atom_site_fract_z
 _atom_site_fract_occupancy
 Mg  Mg1  1  0.75000  0.50000  0.08476  1
 Rh  Rh1  1  0.99592  0.00816  0.00102  1
 Rh  Rh2  1  0.50408  0.99184  0.50918  1
 Rh  Rh3  1  0.25000  0.50000  0.57170  1
