CIF file written using JARVIS-Tools package.
data_NaSr2Cd
_symmetry_space_group_name_H-M  'Fm-3m'
_cell_length_a       14.4269
_cell_length_b       10.2012
_cell_length_c       10.2012
_cell_angle_alpha    33.5532
_cell_angle_beta     19.4685
_cell_angle_gamma    19.4686

_symmetry_Int_Tables_number  225
_chemical_formula_structural  NaSr2Cd
_chemical_formula_sum  NaSr2Cd
_cell_volume  144.42344099994904
_cell_formula_units_Z  1
loop_
  _symmetry_equiv_pos_site_id
 _symmetry_equiv_pos_as_xyz
 1  'x, y, z'
loop_
 _atom_site_type_symbol
 _atom_site_label
 _atom_site_symmetry_multiplicity
 _atom_site_fract_x
 _atom_site_fract_y
 _atom_site_fract_z
 _atom_site_fract_occupancy
 Cd  Cd1  1  0.50000  0.00000  -0.00000  1
 Na  Na1  1  0.00000  0.00000  0.00000  1
 Sr  Sr1  1  0.74999  0.00001  0.00001  1
 Sr  Sr2  1  0.25001  0.99999  0.99999  1
