CIF file written using JARVIS-Tools package.
data_BaRhO3
_symmetry_space_group_name_H-M  'P6_3/mmc'
_cell_length_a       5.78169
_cell_length_b       5.78169
_cell_length_c       9.70794
_cell_angle_alpha    90
_cell_angle_beta     90
_cell_angle_gamma    120

_symmetry_Int_Tables_number  194
_chemical_formula_structural  BaRhO3
_chemical_formula_sum  Ba4Rh4O2
_cell_volume  281.0394653435526
_cell_formula_units_Z  4
loop_
  _symmetry_equiv_pos_site_id
 _symmetry_equiv_pos_as_xyz
 1  'x, y, z'
loop_
 _atom_site_type_symbol
 _atom_site_label
 _atom_site_symmetry_multiplicity
 _atom_site_fract_x
 _atom_site_fract_y
 _atom_site_fract_z
 _atom_site_fract_occupancy
 Ba  Ba1  1  0.33333  0.66667  0.25000  1
 Ba  Ba2  1  0.66667  0.33333  0.75000  1
 Ba  Ba3  1  0.00000  0.00000  0.50000  1
 Ba  Ba4  1  0.00000  0.00000  0.00000  1
 O  O1  1  0.81813  0.63625  0.25000  1
 O  O2  1  0.50000  0.50000  0.50000  1
 O  O3  1  0.18187  0.81813  0.75000  1
 O  O4  1  0.81813  0.18187  0.25000  1
 O  O5  1  0.63625  0.81813  0.75000  1
 O  O6  1  0.18187  0.36375  0.75000  1
 O  O7  1  0.50000  -0.00000  0.50000  1
 O  O8  1  0.50000  -0.00000  0.00000  1
 O  O9  1  0.36375  0.18187  0.25000  1
 O  O10  1  -0.00000  0.50000  0.50000  1
 O  O11  1  -0.00000  0.50000  0.00000  1
 O  O12  1  0.50000  0.50000  0.00000  1
 Rh  Rh1  1  0.66667  0.33333  0.38624  1
 Rh  Rh2  1  0.33333  0.66667  0.88624  1
 Rh  Rh3  1  0.33333  0.66667  0.61376  1
 Rh  Rh4  1  0.66667  0.33333  0.11376  1
