CIF file written using JARVIS-Tools package.
data_LiMg2In
_symmetry_space_group_name_H-M  'Immm'
_cell_length_a       12.2238
_cell_length_b       6.81425
_cell_length_c       6.81425
_cell_angle_alpha    44.5213
_cell_angle_beta     26.2426
_cell_angle_gamma    26.2426

_symmetry_Int_Tables_number  71
_chemical_formula_structural  LiMg2In
_chemical_formula_sum  LiMg2In
_cell_volume  98.07548238590987
_cell_formula_units_Z  1
loop_
  _symmetry_equiv_pos_site_id
 _symmetry_equiv_pos_as_xyz
 1  'x, y, z'
loop_
 _atom_site_type_symbol
 _atom_site_label
 _atom_site_symmetry_multiplicity
 _atom_site_fract_x
 _atom_site_fract_y
 _atom_site_fract_z
 _atom_site_fract_occupancy
 In  In1  1  0.50000  -0.00000  0.00000  1
 Li  Li1  1  0.00000  0.00000  0.00000  1
 Mg  Mg1  1  0.74446  0.00000  -0.00000  1
 Mg  Mg2  1  0.25554  -0.00000  0.00000  1
