CIF file written using JARVIS-Tools package.
data_LiHfHg2
_symmetry_space_group_name_H-M  'Immm'
_cell_length_a       11.05
_cell_length_b       6.34056
_cell_length_c       6.34055
_cell_angle_alpha    27.644
_cell_angle_beta     29.3811
_cell_angle_gamma    29.3811

_symmetry_Int_Tables_number  71
_chemical_formula_structural  LiHfHg2
_chemical_formula_sum  LiHfHg2
_cell_volume  90.9587703075286
_cell_formula_units_Z  1
loop_
  _symmetry_equiv_pos_site_id
 _symmetry_equiv_pos_as_xyz
 1  'x, y, z'
loop_
 _atom_site_type_symbol
 _atom_site_label
 _atom_site_symmetry_multiplicity
 _atom_site_fract_x
 _atom_site_fract_y
 _atom_site_fract_z
 _atom_site_fract_occupancy
 Hf  Hf1  1  0.50000  -0.00000  0.00000  1
 Hg  Hg1  1  0.76639  -0.00000  0.00000  1
 Hg  Hg2  1  0.23361  0.00000  -0.00000  1
 Li  Li1  1  0.00000  0.00000  0.00000  1
