CIF file written using JARVIS-Tools package.
data_LiZrHg2
_symmetry_space_group_name_H-M  'C2/m'
_cell_length_a       11.7055
_cell_length_b       8.24568
_cell_length_c       8.24518
_cell_angle_alpha    34.0258
_cell_angle_beta     19.7994
_cell_angle_gamma    19.8005

_symmetry_Int_Tables_number  12
_chemical_formula_structural  LiZrHg2
_chemical_formula_sum  LiZrHg2
_cell_volume  79.49032951673564
_cell_formula_units_Z  1
loop_
  _symmetry_equiv_pos_site_id
 _symmetry_equiv_pos_as_xyz
 1  'x, y, z'
loop_
 _atom_site_type_symbol
 _atom_site_label
 _atom_site_symmetry_multiplicity
 _atom_site_fract_x
 _atom_site_fract_y
 _atom_site_fract_z
 _atom_site_fract_occupancy
 Hg  Hg1  1  0.75688  -0.00400  -0.00399  1
 Hg  Hg2  1  0.24312  0.00400  0.00399  1
 Li  Li1  1  0.00000  0.00000  0.00000  1
 Zr  Zr1  1  0.50000  -0.00000  0.00000  1
