CIF file written using JARVIS-Tools package.
data_LaCoSi
_symmetry_space_group_name_H-M  'P4/nmm'
_cell_length_a       4.0621
_cell_length_b       4.0621
_cell_length_c       7.23987
_cell_angle_alpha    90
_cell_angle_beta     90
_cell_angle_gamma    90

_symmetry_Int_Tables_number  129
_chemical_formula_structural  LaCoSi
_chemical_formula_sum  La2Co2Si2
_cell_volume  119.46259185641482
_cell_formula_units_Z  2
loop_
  _symmetry_equiv_pos_site_id
 _symmetry_equiv_pos_as_xyz
 1  'x, y, z'
loop_
 _atom_site_type_symbol
 _atom_site_label
 _atom_site_symmetry_multiplicity
 _atom_site_fract_x
 _atom_site_fract_y
 _atom_site_fract_z
 _atom_site_fract_occupancy
 Co  Co1  1  0.75000  0.25000  0.00000  1
 Co  Co2  1  0.25000  0.75000  0.00000  1
 La  La1  1  0.75000  0.75000  0.31464  1
 La  La2  1  0.25000  0.25000  0.68536  1
 Si  Si1  1  0.75000  0.75000  0.83873  1
 Si  Si2  1  0.25000  0.25000  0.16127  1
