CIF file written using JARVIS-Tools package.
data_SrHfO3
_symmetry_space_group_name_H-M  'I4/mcm'
_cell_length_a       5.75384
_cell_length_b       5.75383
_cell_length_c       5.81681
_cell_angle_alpha    119.643
_cell_angle_beta     119.643
_cell_angle_gamma    90

_symmetry_Int_Tables_number  140
_chemical_formula_structural  SrHfO3
_chemical_formula_sum  Sr2Hf2O6
_cell_volume  137.62910188851697
_cell_formula_units_Z  2
loop_
  _symmetry_equiv_pos_site_id
 _symmetry_equiv_pos_as_xyz
 1  'x, y, z'
loop_
 _atom_site_type_symbol
 _atom_site_label
 _atom_site_symmetry_multiplicity
 _atom_site_fract_x
 _atom_site_fract_y
 _atom_site_fract_z
 _atom_site_fract_occupancy
 Hf  Hf1  1  0.00000  0.00000  0.00000  1
 Hf  Hf2  1  0.50000  0.50000  -0.00000  1
 O  O1  1  0.69616  0.19616  -0.00000  1
 O  O2  1  0.80384  0.69616  -0.00000  1
 O  O3  1  0.19616  0.30384  0.00000  1
 O  O4  1  0.30384  0.80384  0.00000  1
 O  O5  1  0.25000  0.25000  0.50000  1
 O  O6  1  0.75000  0.75000  0.50000  1
 Sr  Sr1  1  0.25000  0.75000  0.50000  1
 Sr  Sr2  1  0.75000  0.25000  0.50000  1
