CIF file written using JARVIS-Tools package.
data_Te2MoW3Se4S2
_symmetry_space_group_name_H-M  'P3m1'
_cell_length_a       3.35324
_cell_length_b       3.35323
_cell_length_c       37.8774
_cell_angle_alpha    90.0013
_cell_angle_beta     90
_cell_angle_gamma    120

_symmetry_Int_Tables_number  156
_chemical_formula_structural  Te2MoW3Se4S2
_chemical_formula_sum  Te2MoW3Se4S2
_cell_volume  368.83997030151374
_cell_formula_units_Z  1
loop_
  _symmetry_equiv_pos_site_id
 _symmetry_equiv_pos_as_xyz
 1  'x, y, z'
loop_
 _atom_site_type_symbol
 _atom_site_label
 _atom_site_symmetry_multiplicity
 _atom_site_fract_x
 _atom_site_fract_y
 _atom_site_fract_z
 _atom_site_fract_occupancy
 Mo  Mo1  1  0.66669  0.33338  0.28177  1
 S  S1  1  0.66664  0.33329  0.42938  1
 S  S2  1  0.66664  0.33329  0.50993  1
 Se  Se1  1  0.33336  0.66671  0.32582  1
 Se  Se2  1  0.66664  0.33329  0.04989  1
 Se  Se3  1  0.66664  0.33328  0.13817  1
 Se  Se4  1  0.33335  0.66671  0.23781  1
 Te  Te1  1  0.33336  0.66671  0.70779  1
 Te  Te2  1  0.33335  0.66671  0.60709  1
 W  W1  1  0.33331  0.66663  0.09390  1
 W  W2  1  0.33331  0.66663  0.46963  1
 W  W3  1  0.66669  0.33338  0.65756  1
