CIF file written using JARVIS-Tools package.
data_SrC2
_symmetry_space_group_name_H-M  'R-3m'
_cell_length_a       3.68637
_cell_length_b       3.68637
_cell_length_c       3.68637
_cell_angle_alpha    85.0294
_cell_angle_beta     85.0294
_cell_angle_gamma    85.0293

_symmetry_Int_Tables_number  166
_chemical_formula_structural  SrC2
_chemical_formula_sum  SrC2
_cell_volume  49.560966901511904
_cell_formula_units_Z  1
loop_
  _symmetry_equiv_pos_site_id
 _symmetry_equiv_pos_as_xyz
 1  'x, y, z'
loop_
 _atom_site_type_symbol
 _atom_site_label
 _atom_site_symmetry_multiplicity
 _atom_site_fract_x
 _atom_site_fract_y
 _atom_site_fract_z
 _atom_site_fract_occupancy
 C  C1  1  0.59112  0.59112  0.59112  1
 C  C2  1  0.40888  0.40888  0.40888  1
 Sr  Sr1  1  0.00000  0.00000  0.00000  1
