CIF file written using JARVIS-Tools package.
data_CdSnPd2
_symmetry_space_group_name_H-M  'Immm'
_cell_length_a       10.6644
_cell_length_b       6.08647
_cell_length_c       6.08646
_cell_angle_alpha    28.826
_cell_angle_beta     28.8271
_cell_angle_gamma    28.8271

_symmetry_Int_Tables_number  71
_chemical_formula_structural  CdSnPd2
_chemical_formula_sum  CdSnPd2
_cell_volume  81.21595449218178
_cell_formula_units_Z  1
loop_
  _symmetry_equiv_pos_site_id
 _symmetry_equiv_pos_as_xyz
 1  'x, y, z'
loop_
 _atom_site_type_symbol
 _atom_site_label
 _atom_site_symmetry_multiplicity
 _atom_site_fract_x
 _atom_site_fract_y
 _atom_site_fract_z
 _atom_site_fract_occupancy
 Cd  Cd1  1  0.00000  0.00000  0.00000  1
 Pd  Pd1  1  0.74679  0.00000  0.00000  1
 Pd  Pd2  1  0.25321  -0.00000  -0.00000  1
 Sn  Sn1  1  0.50000  0.00000  0.00000  1
