CIF file written using JARVIS-Tools package.
data_NaSr4B3N6
_symmetry_space_group_name_H-M  'Im-3m'
_cell_length_a       6.5395
_cell_length_b       6.5395
_cell_length_c       6.5395
_cell_angle_alpha    109.471
_cell_angle_beta     109.471
_cell_angle_gamma    109.471

_symmetry_Int_Tables_number  229
_chemical_formula_structural  NaSr4B3N6
_chemical_formula_sum  NaSr4B3N6
_cell_volume  215.2836312819805
_cell_formula_units_Z  1
loop_
  _symmetry_equiv_pos_site_id
 _symmetry_equiv_pos_as_xyz
 1  'x, y, z'
loop_
 _atom_site_type_symbol
 _atom_site_label
 _atom_site_symmetry_multiplicity
 _atom_site_fract_x
 _atom_site_fract_y
 _atom_site_fract_z
 _atom_site_fract_occupancy
 B  B1  1  0.50000  0.50000  0.00000  1
 B  B2  1  0.50000  0.00000  0.50000  1
 B  B3  1  0.00000  0.50000  0.50000  1
 N  N1  1  0.67791  0.00000  0.67791  1
 N  N2  1  0.32209  -0.00000  0.32209  1
 N  N3  1  0.67791  0.67791  0.00000  1
 N  N4  1  0.32209  0.32209  -0.00000  1
 N  N5  1  -0.00000  0.67791  0.67791  1
 N  N6  1  0.00000  0.32209  0.32209  1
 Na  Na1  1  0.00000  0.00000  0.00000  1
 Sr  Sr1  1  0.00000  0.50000  0.00000  1
 Sr  Sr2  1  0.50000  0.00000  0.00000  1
 Sr  Sr3  1  0.50000  0.50000  0.50000  1
 Sr  Sr4  1  0.00000  0.00000  0.50000  1
