CIF file written using JARVIS-Tools package.
data_LiY2Co
_symmetry_space_group_name_H-M  'Immm'
_cell_length_a       15.4305
_cell_length_b       7.44458
_cell_length_c       7.44458
_cell_angle_alpha    31.1027
_cell_angle_beta     19.5373
_cell_angle_gamma    19.5373

_symmetry_Int_Tables_number  71
_chemical_formula_structural  LiY2Co
_chemical_formula_sum  LiY2Co
_cell_volume  91.66272387478216
_cell_formula_units_Z  1
loop_
  _symmetry_equiv_pos_site_id
 _symmetry_equiv_pos_as_xyz
 1  'x, y, z'
loop_
 _atom_site_type_symbol
 _atom_site_label
 _atom_site_symmetry_multiplicity
 _atom_site_fract_x
 _atom_site_fract_y
 _atom_site_fract_z
 _atom_site_fract_occupancy
 Co  Co1  1  0.50000  0.00000  -0.00000  1
 Li  Li1  1  0.00000  0.00000  0.00000  1
 Y  Y1  1  0.84463  0.81011  0.81011  1
 Y  Y2  1  0.15537  0.18989  0.18989  1
