CIF file written using JARVIS-Tools package.
data_LiCuAu2
_symmetry_space_group_name_H-M  'Immm'
_cell_length_a       9.7446
_cell_length_b       10.3035
_cell_length_c       10.3035
_cell_angle_alpha    61.198
_cell_angle_beta     61.7792
_cell_angle_gamma    61.7793

_symmetry_Int_Tables_number  71
_chemical_formula_structural  LiCuAu2
_chemical_formula_sum  LiCuAu2
_cell_volume  757.478111547553
_cell_formula_units_Z  1
loop_
  _symmetry_equiv_pos_site_id
 _symmetry_equiv_pos_as_xyz
 1  'x, y, z'
loop_
 _atom_site_type_symbol
 _atom_site_label
 _atom_site_symmetry_multiplicity
 _atom_site_fract_x
 _atom_site_fract_y
 _atom_site_fract_z
 _atom_site_fract_occupancy
 Au  Au1  1  0.74841  -0.00000  -0.00000  1
 Au  Au2  1  0.25159  0.00000  0.00000  1
 Cu  Cu1  1  0.50000  -0.00000  0.00000  1
 Li  Li1  1  0.00000  0.00000  0.00000  1
