CIF file written using JARVIS-Tools package.
data_SrSi2
_symmetry_space_group_name_H-M  'P4_332'
_cell_length_a       6.57825
_cell_length_b       6.57825
_cell_length_c       6.57825
_cell_angle_alpha    90
_cell_angle_beta     90
_cell_angle_gamma    90

_symmetry_Int_Tables_number  212
_chemical_formula_structural  SrSi2
_chemical_formula_sum  Sr4Si8
_cell_volume  284.6627026882056
_cell_formula_units_Z  4
loop_
  _symmetry_equiv_pos_site_id
 _symmetry_equiv_pos_as_xyz
 1  'x, y, z'
loop_
 _atom_site_type_symbol
 _atom_site_label
 _atom_site_symmetry_multiplicity
 _atom_site_fract_x
 _atom_site_fract_y
 _atom_site_fract_z
 _atom_site_fract_occupancy
 Si  Si1  1  0.82661  0.82661  0.82661  1
 Si  Si2  1  0.57661  0.92339  0.07661  1
 Si  Si3  1  0.92339  0.07661  0.57661  1
 Si  Si4  1  0.07661  0.57661  0.92339  1
 Si  Si5  1  0.42339  0.42339  0.42339  1
 Si  Si6  1  0.17339  0.32661  0.67339  1
 Si  Si7  1  0.67339  0.17339  0.32661  1
 Si  Si8  1  0.32661  0.67339  0.17339  1
 Sr  Sr1  1  0.62500  0.37500  0.87500  1
 Sr  Sr2  1  0.37500  0.87500  0.62500  1
 Sr  Sr3  1  0.87500  0.62500  0.37500  1
 Sr  Sr4  1  0.12500  0.12500  0.12500  1
