CIF file written using JARVIS-Tools package.
data_MoWSe3S
_symmetry_space_group_name_H-M  'P3m1'
_cell_length_a       3.29277
_cell_length_b       3.29276
_cell_length_c       34.9453
_cell_angle_alpha    89.9996
_cell_angle_beta     90
_cell_angle_gamma    120

_symmetry_Int_Tables_number  156
_chemical_formula_structural  MoWSe3S
_chemical_formula_sum  Mo2W2Se6S2
_cell_volume  328.1258842031164
_cell_formula_units_Z  2
loop_
  _symmetry_equiv_pos_site_id
 _symmetry_equiv_pos_as_xyz
 1  'x, y, z'
loop_
 _atom_site_type_symbol
 _atom_site_label
 _atom_site_symmetry_multiplicity
 _atom_site_fract_x
 _atom_site_fract_y
 _atom_site_fract_z
 _atom_site_fract_occupancy
 Mo  Mo1  1  0.33331  0.66662  0.09643  1
 Mo  Mo2  1  0.66668  0.33337  0.27895  1
 S  S1  1  0.66665  0.33330  0.05254  1
 S  S2  1  0.66664  0.33329  0.14038  1
 Se  Se1  1  0.33335  0.66670  0.32718  1
 Se  Se2  1  0.33333  0.66666  0.70735  1
 Se  Se3  1  0.66668  0.33335  0.42013  1
 Se  Se4  1  0.66667  0.33334  0.51716  1
 Se  Se5  1  0.33335  0.66670  0.23073  1
 Se  Se6  1  0.33333  0.66667  0.61037  1
 W  W1  1  0.33334  0.66668  0.46865  1
 W  W2  1  0.66667  0.33333  0.65889  1
