CIF file written using JARVIS-Tools package.
data_CaV2O4
_symmetry_space_group_name_H-M  'Imma'
_cell_length_a       6.18768
_cell_length_b       6.18768
_cell_length_c       6.05426
_cell_angle_alpha    60.7108
_cell_angle_beta     60.7107
_cell_angle_gamma    60.2729

_symmetry_Int_Tables_number  74
_chemical_formula_structural  CaV2O4
_chemical_formula_sum  Ca2V4O8
_cell_volume  165.99332248002733
_cell_formula_units_Z  2
loop_
  _symmetry_equiv_pos_site_id
 _symmetry_equiv_pos_as_xyz
 1  'x, y, z'
loop_
 _atom_site_type_symbol
 _atom_site_label
 _atom_site_symmetry_multiplicity
 _atom_site_fract_x
 _atom_site_fract_y
 _atom_site_fract_z
 _atom_site_fract_occupancy
 Ca  Ca1  1  0.12500  0.62500  0.62500  1
 Ca  Ca2  1  0.62500  0.12500  0.62500  1
 O  O1  1  0.39082  0.39082  0.33808  1
 O  O2  1  0.39560  0.87713  0.36364  1
 O  O3  1  0.39082  0.39082  0.88028  1
 O  O4  1  0.87713  0.39560  0.36364  1
 O  O5  1  0.37287  0.85440  0.88636  1
 O  O6  1  0.85440  0.37287  0.88636  1
 O  O7  1  0.85918  0.85918  0.36972  1
 O  O8  1  0.85918  0.85918  0.91192  1
 V  V1  1  0.99445  0.99445  0.00555  1
 V  V2  1  0.25555  0.25555  0.24445  1
 V  V3  1  0.62500  0.62500  0.12500  1
 V  V4  1  0.62500  0.62500  0.62500  1
