CIF file written using JARVIS-Tools package.
data_Zn3P2
_symmetry_space_group_name_H-M  'Pn-3m'
_cell_length_a       5.73044
_cell_length_b       5.73044
_cell_length_c       5.73044
_cell_angle_alpha    90
_cell_angle_beta     90
_cell_angle_gamma    90

_symmetry_Int_Tables_number  224
_chemical_formula_structural  Zn3P2
_chemical_formula_sum  Zn6P4
_cell_volume  188.17563102117742
_cell_formula_units_Z  2
loop_
  _symmetry_equiv_pos_site_id
 _symmetry_equiv_pos_as_xyz
 1  'x, y, z'
loop_
 _atom_site_type_symbol
 _atom_site_label
 _atom_site_symmetry_multiplicity
 _atom_site_fract_x
 _atom_site_fract_y
 _atom_site_fract_z
 _atom_site_fract_occupancy
 P  P1  1  0.25000  0.75000  0.75000  1
 P  P2  1  0.75000  0.75000  0.25000  1
 P  P3  1  0.75000  0.25000  0.75000  1
 P  P4  1  0.25000  0.25000  0.25000  1
 Zn  Zn1  1  0.50000  0.00000  0.50000  1
 Zn  Zn2  1  0.50000  0.50000  0.00000  1
 Zn  Zn3  1  0.00000  0.50000  0.00000  1
 Zn  Zn4  1  0.00000  0.00000  0.50000  1
 Zn  Zn5  1  0.50000  0.00000  0.00000  1
 Zn  Zn6  1  0.00000  0.50000  0.50000  1
