CIF file written using JARVIS-Tools package.
data_NaOs2O6
_symmetry_space_group_name_H-M  'Fd-3m'
_cell_length_a       7.20057
_cell_length_b       7.20057
_cell_length_c       7.20057
_cell_angle_alpha    60
_cell_angle_beta     60
_cell_angle_gamma    60

_symmetry_Int_Tables_number  227
_chemical_formula_structural  NaOs2O6
_chemical_formula_sum  Na2Os4O2
_cell_volume  263.9887578962575
_cell_formula_units_Z  2
loop_
  _symmetry_equiv_pos_site_id
 _symmetry_equiv_pos_as_xyz
 1  'x, y, z'
loop_
 _atom_site_type_symbol
 _atom_site_label
 _atom_site_symmetry_multiplicity
 _atom_site_fract_x
 _atom_site_fract_y
 _atom_site_fract_z
 _atom_site_fract_occupancy
 Na  Na1  1  0.37500  0.37500  0.37500  1
 Na  Na2  1  0.62500  0.62500  0.62500  1
 O  O1  1  0.68290  0.68290  0.06710  1
 O  O2  1  0.06710  0.06710  0.68290  1
 O  O3  1  0.68290  0.06710  0.06710  1
 O  O4  1  0.06710  0.68290  0.68290  1
 O  O5  1  0.68290  0.06710  0.68290  1
 O  O6  1  0.31710  0.93290  0.93290  1
 O  O7  1  0.06710  0.68290  0.06710  1
 O  O8  1  0.31710  0.31710  0.93290  1
 O  O9  1  0.93290  0.31710  0.93290  1
 O  O10  1  0.93290  0.31710  0.31710  1
 O  O11  1  0.93290  0.93290  0.31710  1
 O  O12  1  0.31710  0.93290  0.31710  1
 Os  Os1  1  0.00000  0.00000  0.00000  1
 Os  Os2  1  -0.00000  0.50000  -0.00000  1
 Os  Os3  1  0.00000  0.00000  0.50000  1
 Os  Os4  1  0.50000  0.00000  0.00000  1
