CIF file written using JARVIS-Tools package.
data_TaC
_symmetry_space_group_name_H-M  'F-43m'
_cell_length_a       3.42012
_cell_length_b       3.42012
_cell_length_c       3.42012
_cell_angle_alpha    60
_cell_angle_beta     60
_cell_angle_gamma    60

_symmetry_Int_Tables_number  216
_chemical_formula_structural  TaC
_chemical_formula_sum  TaC
_cell_volume  28.28837434154162
_cell_formula_units_Z  1
loop_
  _symmetry_equiv_pos_site_id
 _symmetry_equiv_pos_as_xyz
 1  'x, y, z'
loop_
 _atom_site_type_symbol
 _atom_site_label
 _atom_site_symmetry_multiplicity
 _atom_site_fract_x
 _atom_site_fract_y
 _atom_site_fract_z
 _atom_site_fract_occupancy
 C  C1  1  0.75000  0.75000  0.75000  1
 Ta  Ta1  1  0.00000  0.00000  0.00000  1
