CIF file written using JARVIS-Tools package.
data_MnPO4
_symmetry_space_group_name_H-M  'Cmcm'
_cell_length_a       4.6766
_cell_length_b       4.6766
_cell_length_c       6.40809
_cell_angle_alpha    90
_cell_angle_beta     90
_cell_angle_gamma    68.8642

_symmetry_Int_Tables_number  63
_chemical_formula_structural  MnPO4
_chemical_formula_sum  Mn2P2O8
_cell_volume  130.7208829628604
_cell_formula_units_Z  2
loop_
  _symmetry_equiv_pos_site_id
 _symmetry_equiv_pos_as_xyz
 1  'x, y, z'
loop_
 _atom_site_type_symbol
 _atom_site_label
 _atom_site_symmetry_multiplicity
 _atom_site_fract_x
 _atom_site_fract_y
 _atom_site_fract_z
 _atom_site_fract_occupancy
 Mn  Mn1  1  0.00000  0.00000  0.50000  1
 Mn  Mn2  1  0.00000  0.00000  0.00000  1
 O  O1  1  0.70817  0.22424  0.25000  1
 O  O2  1  0.76048  0.76048  0.54993  1
 O  O3  1  0.23952  0.23952  0.04993  1
 O  O4  1  0.23952  0.23952  0.45007  1
 O  O5  1  0.77576  0.29183  0.75000  1
 O  O6  1  0.29183  0.77576  0.75000  1
 O  O7  1  0.76048  0.76048  0.95007  1
 O  O8  1  0.22424  0.70816  0.25000  1
 P  P1  1  0.34906  0.34906  0.25000  1
 P  P2  1  0.65094  0.65095  0.75000  1
