CIF file written using JARVIS-Tools package.
data_Te2MoW3Se6
_symmetry_space_group_name_H-M  'P3m1'
_cell_length_a       3.38577
_cell_length_b       3.38578
_cell_length_c       36.3956
_cell_angle_alpha    89.9995
_cell_angle_beta     90
_cell_angle_gamma    120

_symmetry_Int_Tables_number  156
_chemical_formula_structural  Te2MoW3Se6
_chemical_formula_sum  Te2MoW3Se6
_cell_volume  361.32456820397454
_cell_formula_units_Z  1
loop_
  _symmetry_equiv_pos_site_id
 _symmetry_equiv_pos_as_xyz
 1  'x, y, z'
loop_
 _atom_site_type_symbol
 _atom_site_label
 _atom_site_symmetry_multiplicity
 _atom_site_fract_x
 _atom_site_fract_y
 _atom_site_fract_z
 _atom_site_fract_occupancy
 Mo  Mo1  1  0.33327  0.66654  0.09258  1
 Se  Se1  1  0.33340  0.66680  0.69949  1
 Se  Se2  1  0.66660  0.33321  0.04720  1
 Se  Se3  1  0.66669  0.33339  0.42800  1
 Se  Se4  1  0.66662  0.33324  0.13806  1
 Se  Se5  1  0.66668  0.33336  0.51931  1
 Se  Se6  1  0.33336  0.66672  0.60824  1
 Te  Te1  1  0.33330  0.66659  0.33479  1
 Te  Te2  1  0.33334  0.66667  0.23075  1
 W  W1  1  0.33336  0.66671  0.47367  1
 W  W2  1  0.66666  0.33332  0.28277  1
 W  W3  1  0.66672  0.33344  0.65389  1
