CIF file written using JARVIS-Tools package.
data_YRe2
_symmetry_space_group_name_H-M  'P6_3/mmc'
_cell_length_a       5.42665
_cell_length_b       5.42665
_cell_length_c       8.85029
_cell_angle_alpha    90
_cell_angle_beta     90
_cell_angle_gamma    120

_symmetry_Int_Tables_number  194
_chemical_formula_structural  YRe2
_chemical_formula_sum  Y4Re8
_cell_volume  225.71036676028007
_cell_formula_units_Z  4
loop_
  _symmetry_equiv_pos_site_id
 _symmetry_equiv_pos_as_xyz
 1  'x, y, z'
loop_
 _atom_site_type_symbol
 _atom_site_label
 _atom_site_symmetry_multiplicity
 _atom_site_fract_x
 _atom_site_fract_y
 _atom_site_fract_z
 _atom_site_fract_occupancy
 Re  Re1  1  0.82901  0.17099  0.75000  1
 Re  Re2  1  0.34197  0.17099  0.75000  1
 Re  Re3  1  0.17099  0.34197  0.25000  1
 Re  Re4  1  0.17099  0.82901  0.25000  1
 Re  Re5  1  0.82901  0.65803  0.75000  1
 Re  Re6  1  0.00000  0.00000  0.00000  1
 Re  Re7  1  0.65803  0.82901  0.25000  1
 Re  Re8  1  0.00000  0.00000  0.50000  1
 Y  Y1  1  0.66667  0.33333  0.43764  1
 Y  Y2  1  0.33333  0.66667  0.56236  1
 Y  Y3  1  0.33333  0.66667  0.93764  1
 Y  Y4  1  0.66667  0.33333  0.06236  1
