CIF file written using JARVIS-Tools package.
data_CoO2
_symmetry_space_group_name_H-M  'P6_3/mmc'
_cell_length_a       2.8867
_cell_length_b       2.8867
_cell_length_c       10.8997
_cell_angle_alpha    90
_cell_angle_beta     90
_cell_angle_gamma    120

_symmetry_Int_Tables_number  194
_chemical_formula_structural  CoO2
_chemical_formula_sum  Co2O4
_cell_volume  78.65851212996186
_cell_formula_units_Z  2
loop_
  _symmetry_equiv_pos_site_id
 _symmetry_equiv_pos_as_xyz
 1  'x, y, z'
loop_
 _atom_site_type_symbol
 _atom_site_label
 _atom_site_symmetry_multiplicity
 _atom_site_fract_x
 _atom_site_fract_y
 _atom_site_fract_z
 _atom_site_fract_occupancy
 Co  Co1  1  0.66667  0.33333  0.75000  1
 Co  Co2  1  0.33333  0.66667  0.25000  1
 O  O1  1  0.33333  0.66667  0.39559  1
 O  O2  1  0.66667  0.33333  0.89559  1
 O  O3  1  0.33333  0.66667  0.10441  1
 O  O4  1  0.66667  0.33333  0.60441  1
