CIF file written using JARVIS-Tools package.
data_CrN2
_symmetry_space_group_name_H-M  'Pbcn'
_cell_length_a       4.35579
_cell_length_b       4.80966
_cell_length_c       5.5692
_cell_angle_alpha    90
_cell_angle_beta     90
_cell_angle_gamma    90

_symmetry_Int_Tables_number  60
_chemical_formula_structural  CrN2
_chemical_formula_sum  Cr4N8
_cell_volume  116.67405893545165
_cell_formula_units_Z  4
loop_
  _symmetry_equiv_pos_site_id
 _symmetry_equiv_pos_as_xyz
 1  'x, y, z'
loop_
 _atom_site_type_symbol
 _atom_site_label
 _atom_site_symmetry_multiplicity
 _atom_site_fract_x
 _atom_site_fract_y
 _atom_site_fract_z
 _atom_site_fract_occupancy
 Cr  Cr1  1  0.00000  0.25000  0.91392  1
 Cr  Cr2  1  0.50000  0.75000  0.58608  1
 Cr  Cr3  1  0.00000  0.75000  0.08608  1
 Cr  Cr4  1  0.50000  0.25000  0.41392  1
 N  N1  1  0.72361  0.07644  0.63542  1
 N  N2  1  0.77639  0.57644  0.86458  1
 N  N3  1  0.22361  0.92356  0.86458  1
 N  N4  1  0.27639  0.42356  0.63542  1
 N  N5  1  0.27639  0.92356  0.36458  1
 N  N6  1  0.22361  0.42356  0.13542  1
 N  N7  1  0.77639  0.07644  0.13542  1
 N  N8  1  0.72361  0.57644  0.36458  1
