CIF file written using JARVIS-Tools package.
data_TmTlTe2
_symmetry_space_group_name_H-M  'R-3m'
_cell_length_a       4.38602
_cell_length_b       4.38602
_cell_length_c       8.52087
_cell_angle_alpha    75.086
_cell_angle_beta     75.086
_cell_angle_gamma    60

_symmetry_Int_Tables_number  166
_chemical_formula_structural  TmTlTe2
_chemical_formula_sum  TmTlTe2
_cell_volume  135.5428699044207
_cell_formula_units_Z  1
loop_
  _symmetry_equiv_pos_site_id
 _symmetry_equiv_pos_as_xyz
 1  'x, y, z'
loop_
 _atom_site_type_symbol
 _atom_site_label
 _atom_site_symmetry_multiplicity
 _atom_site_fract_x
 _atom_site_fract_y
 _atom_site_fract_z
 _atom_site_fract_occupancy
 Te  Te1  1  0.76290  0.76290  0.71128  1
 Te  Te2  1  0.23710  0.23710  0.28872  1
 Tl  Tl1  1  0.00000  0.00000  0.00000  1
 Tm  Tm1  1  0.50000  0.50000  0.50000  1
