CIF file written using JARVIS-Tools package.
data_HfO2
_symmetry_space_group_name_H-M  'P4_2/nmc'
_cell_length_a       3.58179
_cell_length_b       3.58179
_cell_length_c       5.19879
_cell_angle_alpha    90
_cell_angle_beta     90
_cell_angle_gamma    90

_symmetry_Int_Tables_number  137
_chemical_formula_structural  HfO2
_chemical_formula_sum  Hf2O4
_cell_volume  66.6962754517181
_cell_formula_units_Z  2
loop_
  _symmetry_equiv_pos_site_id
 _symmetry_equiv_pos_as_xyz
 1  'x, y, z'
loop_
 _atom_site_type_symbol
 _atom_site_label
 _atom_site_symmetry_multiplicity
 _atom_site_fract_x
 _atom_site_fract_y
 _atom_site_fract_z
 _atom_site_fract_occupancy
 Hf  Hf1  1  0.50000  0.50000  0.50000  1
 Hf  Hf2  1  0.00000  0.00000  0.00000  1
 O  O1  1  0.00000  0.50000  0.69779  1
 O  O2  1  0.50000  0.00000  0.80221  1
 O  O3  1  0.50000  0.00000  0.30221  1
 O  O4  1  0.00000  0.50000  0.19779  1
