CIF file written using JARVIS-Tools package.
data_YFeF5
_symmetry_space_group_name_H-M  'Immm'
_cell_length_a       4.1968
_cell_length_b       5.73238
_cell_length_c       5.73237
_cell_angle_alpha    73.4674
_cell_angle_beta     68.5271
_cell_angle_gamma    68.527

_symmetry_Int_Tables_number  71
_chemical_formula_structural  YFeF5
_chemical_formula_sum  YFeF5
_cell_volume  117.60893855574407
_cell_formula_units_Z  1
loop_
  _symmetry_equiv_pos_site_id
 _symmetry_equiv_pos_as_xyz
 1  'x, y, z'
loop_
 _atom_site_type_symbol
 _atom_site_label
 _atom_site_symmetry_multiplicity
 _atom_site_fract_x
 _atom_site_fract_y
 _atom_site_fract_z
 _atom_site_fract_occupancy
 F  F1  1  0.50000  0.81685  0.18315  1
 F  F2  1  0.50000  0.18315  0.81685  1
 F  F3  1  0.77038  0.22962  0.22962  1
 F  F4  1  0.22962  0.77038  0.77038  1
 F  F5  1  0.00000  0.50000  0.50000  1
 Fe  Fe1  1  0.00000  0.00000  0.00000  1
 Y  Y1  1  0.50000  0.50000  0.50000  1
