CIF file written using JARVIS-Tools package.
data_BaNaH3Pd
_symmetry_space_group_name_H-M  'P6_3/mmc'
_cell_length_a       6.06502
_cell_length_b       6.06502
_cell_length_c       6.14644
_cell_angle_alpha    90
_cell_angle_beta     90
_cell_angle_gamma    120

_symmetry_Int_Tables_number  194
_chemical_formula_structural  BaNaH3Pd
_chemical_formula_sum  Ba2Na2H6Pd2
_cell_volume  195.8021549420404
_cell_formula_units_Z  2
loop_
  _symmetry_equiv_pos_site_id
 _symmetry_equiv_pos_as_xyz
 1  'x, y, z'
loop_
 _atom_site_type_symbol
 _atom_site_label
 _atom_site_symmetry_multiplicity
 _atom_site_fract_x
 _atom_site_fract_y
 _atom_site_fract_z
 _atom_site_fract_occupancy
 Ba  Ba1  1  0.33333  0.66667  0.25000  1
 Ba  Ba2  1  0.66667  0.33333  0.75000  1
 H  H1  1  0.83321  0.16679  0.25000  1
 H  H2  1  0.33359  0.16679  0.25000  1
 H  H3  1  0.83321  0.66641  0.25000  1
 H  H4  1  0.16679  0.33359  0.75000  1
 H  H5  1  0.66641  0.83321  0.75000  1
 H  H6  1  0.16679  0.83321  0.75000  1
 Na  Na1  1  0.00000  0.00000  0.00000  1
 Na  Na2  1  0.00000  0.00000  0.50000  1
 Pd  Pd1  1  0.66667  0.33333  0.25000  1
 Pd  Pd2  1  0.33333  0.66667  0.75000  1
