CIF file written using JARVIS-Tools package.
data_Y2Hf2O7
_symmetry_space_group_name_H-M  'Fd-3m'
_cell_length_a       7.41183
_cell_length_b       7.41182
_cell_length_c       7.41182
_cell_angle_alpha    60
_cell_angle_beta     60
_cell_angle_gamma    60

_symmetry_Int_Tables_number  227
_chemical_formula_structural  Y2Hf2O7
_chemical_formula_sum  Y4Hf4O4
_cell_volume  287.9122020038406
_cell_formula_units_Z  2
loop_
  _symmetry_equiv_pos_site_id
 _symmetry_equiv_pos_as_xyz
 1  'x, y, z'
loop_
 _atom_site_type_symbol
 _atom_site_label
 _atom_site_symmetry_multiplicity
 _atom_site_fract_x
 _atom_site_fract_y
 _atom_site_fract_z
 _atom_site_fract_occupancy
 Hf  Hf1  1  0.00000  0.00000  0.00000  1
 Hf  Hf2  1  0.00000  0.00000  0.50000  1
 Hf  Hf3  1  -0.00000  0.50000  -0.00000  1
 Hf  Hf4  1  0.50000  0.00000  0.00000  1
 O  O1  1  0.62500  0.62500  0.62500  1
 O  O2  1  0.66194  0.66194  0.08806  1
 O  O3  1  0.33806  0.91194  0.91194  1
 O  O4  1  0.66194  0.08806  0.08806  1
 O  O5  1  0.66194  0.08806  0.66194  1
 O  O6  1  0.91194  0.91194  0.33806  1
 O  O7  1  0.33806  0.91194  0.33806  1
 O  O8  1  0.08806  0.66194  0.08806  1
 O  O9  1  0.37500  0.37500  0.37500  1
 O  O10  1  0.08806  0.66194  0.66194  1
 O  O11  1  0.91194  0.33806  0.33806  1
 O  O12  1  0.08806  0.08806  0.66194  1
 O  O13  1  0.33806  0.33806  0.91194  1
 O  O14  1  0.91194  0.33806  0.91194  1
 Y  Y1  1  -0.00000  0.50000  0.50000  1
 Y  Y2  1  0.50000  0.50000  0.00000  1
 Y  Y3  1  0.50000  0.50000  0.50000  1
 Y  Y4  1  0.50000  0.00000  0.50000  1
