CIF file written using JARVIS-Tools package.
data_AlSn2O4
_symmetry_space_group_name_H-M  'R-3m'
_cell_length_a       6.48553
_cell_length_b       6.48553
_cell_length_c       6.48553
_cell_angle_alpha    60.6358
_cell_angle_beta     60.6358
_cell_angle_gamma    60.6358

_symmetry_Int_Tables_number  166
_chemical_formula_structural  AlSn2O4
_chemical_formula_sum  Al2Sn4O8
_cell_volume  195.66462576825083
_cell_formula_units_Z  2
loop_
  _symmetry_equiv_pos_site_id
 _symmetry_equiv_pos_as_xyz
 1  'x, y, z'
loop_
 _atom_site_type_symbol
 _atom_site_label
 _atom_site_symmetry_multiplicity
 _atom_site_fract_x
 _atom_site_fract_y
 _atom_site_fract_z
 _atom_site_fract_occupancy
 Al  Al1  1  0.62338  0.62338  0.62338  1
 Al  Al2  1  0.37662  0.37662  0.37662  1
 O  O1  1  0.28293  0.73638  0.73638  1
 O  O2  1  0.26362  0.26362  0.71707  1
 O  O3  1  0.26362  0.71707  0.26362  1
 O  O4  1  0.26082  0.26082  0.26082  1
 O  O5  1  0.73638  0.73638  0.28293  1
 O  O6  1  0.71707  0.26362  0.26362  1
 O  O7  1  0.73638  0.28293  0.73638  1
 O  O8  1  0.73918  0.73918  0.73918  1
 Sn  Sn1  1  0.00000  0.50000  0.00000  1
 Sn  Sn2  1  0.00000  0.00000  0.00000  1
 Sn  Sn3  1  0.50000  -0.00000  0.00000  1
 Sn  Sn4  1  0.00000  0.00000  0.50000  1
