CIF file written using JARVIS-Tools package.
data_ZnCu2SnS4
_symmetry_space_group_name_H-M  'I-42m'
_cell_length_a       5.45062
_cell_length_b       5.45062
_cell_length_c       6.69152
_cell_angle_alpha    114.034
_cell_angle_beta     114.034
_cell_angle_gamma    90

_symmetry_Int_Tables_number  121
_chemical_formula_structural  ZnCu2SnS4
_chemical_formula_sum  ZnCu2SnS4
_cell_volume  162.51218695993992
_cell_formula_units_Z  1
loop_
  _symmetry_equiv_pos_site_id
 _symmetry_equiv_pos_as_xyz
 1  'x, y, z'
loop_
 _atom_site_type_symbol
 _atom_site_label
 _atom_site_symmetry_multiplicity
 _atom_site_fract_x
 _atom_site_fract_y
 _atom_site_fract_z
 _atom_site_fract_occupancy
 Cu  Cu1  1  0.25000  0.75000  0.50000  1
 Cu  Cu2  1  0.75000  0.25000  0.50000  1
 S  S1  1  0.37494  0.37494  0.26675  1
 S  S2  1  0.89181  0.89181  0.26675  1
 S  S3  1  0.10819  0.62506  0.73325  1
 S  S4  1  0.62506  0.10819  0.73325  1
 Sn  Sn1  1  0.50000  0.50000  0.00000  1
 Zn  Zn1  1  0.00000  0.00000  0.00000  1
