CIF file written using JARVIS-Tools package.
data_Sc2SiB2Ir5
_symmetry_space_group_name_H-M  'P4/mbm'
_cell_length_a       9.24727
_cell_length_b       9.24727
_cell_length_c       3.1399
_cell_angle_alpha    90
_cell_angle_beta     90
_cell_angle_gamma    90

_symmetry_Int_Tables_number  127
_chemical_formula_structural  Sc2SiB2Ir5
_chemical_formula_sum  Sc4Si2B4Ir0
_cell_volume  268.4990824801924
_cell_formula_units_Z  2
loop_
  _symmetry_equiv_pos_site_id
 _symmetry_equiv_pos_as_xyz
 1  'x, y, z'
loop_
 _atom_site_type_symbol
 _atom_site_label
 _atom_site_symmetry_multiplicity
 _atom_site_fract_x
 _atom_site_fract_y
 _atom_site_fract_z
 _atom_site_fract_occupancy
 B  B1  1  0.87598  0.62402  0.00000  1
 B  B2  1  0.12402  0.37598  0.00000  1
 B  B3  1  0.62402  0.12402  0.00000  1
 B  B4  1  0.37598  0.87598  0.00000  1
 Ir  Ir1  1  0.92945  0.78773  0.50000  1
 Ir  Ir2  1  0.42945  0.71227  0.50000  1
 Ir  Ir3  1  0.57055  0.28773  0.50000  1
 Ir  Ir4  1  0.71227  0.57055  0.50000  1
 Ir  Ir5  1  0.28773  0.42945  0.50000  1
 Ir  Ir6  1  0.50000  0.00000  0.50000  1
 Ir  Ir7  1  0.00000  0.50000  0.50000  1
 Ir  Ir8  1  0.07055  0.21227  0.50000  1
 Ir  Ir9  1  0.78773  0.07055  0.50000  1
 Ir  Ir10  1  0.21227  0.92945  0.50000  1
 Sc  Sc1  1  0.82476  0.32476  0.00000  1
 Sc  Sc2  1  0.32476  0.17524  0.00000  1
 Sc  Sc3  1  0.67524  0.82476  0.00000  1
 Sc  Sc4  1  0.17524  0.67524  0.00000  1
 Si  Si1  1  0.50000  0.50000  0.00000  1
 Si  Si2  1  0.00000  0.00000  0.00000  1
