CIF file written using JARVIS-Tools package.
data_MnB2W2
_symmetry_space_group_name_H-M  'P4/mbm'
_cell_length_a       5.77046
_cell_length_b       5.77046
_cell_length_c       3.18229
_cell_angle_alpha    90
_cell_angle_beta     90
_cell_angle_gamma    90

_symmetry_Int_Tables_number  127
_chemical_formula_structural  MnB2W2
_chemical_formula_sum  Mn2B4W4
_cell_volume  105.96475342244777
_cell_formula_units_Z  2
loop_
  _symmetry_equiv_pos_site_id
 _symmetry_equiv_pos_as_xyz
 1  'x, y, z'
loop_
 _atom_site_type_symbol
 _atom_site_label
 _atom_site_symmetry_multiplicity
 _atom_site_fract_x
 _atom_site_fract_y
 _atom_site_fract_z
 _atom_site_fract_occupancy
 B  B1  1  0.11506  0.61506  0.00000  1
 B  B2  1  0.88494  0.38494  0.00000  1
 B  B3  1  0.61506  0.88494  0.00000  1
 B  B4  1  0.38494  0.11506  0.00000  1
 Mn  Mn1  1  0.50000  0.50000  0.00000  1
 Mn  Mn2  1  0.00000  0.00000  0.00000  1
 W  W1  1  0.82198  0.67802  0.50000  1
 W  W2  1  0.17802  0.32198  0.50000  1
 W  W3  1  0.67802  0.17802  0.50000  1
 W  W4  1  0.32198  0.82198  0.50000  1
