CIF file written using JARVIS-Tools package.
data_Yb4As6Rh7
_symmetry_space_group_name_H-M  'Im-3m'
_cell_length_a       7.20817
_cell_length_b       7.20817
_cell_length_c       7.20817
_cell_angle_alpha    109.471
_cell_angle_beta     109.471
_cell_angle_gamma    109.471

_symmetry_Int_Tables_number  229
_chemical_formula_structural  Yb4As6Rh7
_chemical_formula_sum  Yb4As6Rh7
_cell_volume  288.3055052585072
_cell_formula_units_Z  1
loop_
  _symmetry_equiv_pos_site_id
 _symmetry_equiv_pos_as_xyz
 1  'x, y, z'
loop_
 _atom_site_type_symbol
 _atom_site_label
 _atom_site_symmetry_multiplicity
 _atom_site_fract_x
 _atom_site_fract_y
 _atom_site_fract_z
 _atom_site_fract_occupancy
 As  As1  1  0.31857  0.31857  0.00000  1
 As  As2  1  0.00000  0.31857  0.31857  1
 As  As3  1  -0.00000  0.68143  0.68143  1
 As  As4  1  0.68143  -0.00000  0.68143  1
 As  As5  1  0.68143  0.68143  -0.00000  1
 As  As6  1  0.31857  0.00000  0.31857  1
 Rh  Rh1  1  0.25000  0.50000  0.75000  1
 Rh  Rh2  1  0.00000  0.00000  0.00000  1
 Rh  Rh3  1  0.50000  0.25000  0.75000  1
 Rh  Rh4  1  0.75000  0.25000  0.50000  1
 Rh  Rh5  1  0.25000  0.75000  0.50000  1
 Rh  Rh6  1  0.50000  0.75000  0.25000  1
 Rh  Rh7  1  0.75000  0.50000  0.25000  1
 Yb  Yb1  1  0.50000  0.00000  0.00000  1
 Yb  Yb2  1  0.00000  0.00000  0.50000  1
 Yb  Yb3  1  0.00000  0.50000  0.00000  1
 Yb  Yb4  1  0.50000  0.50000  0.50000  1
