CIF file written using JARVIS-Tools package.
data_LiMgSbPt
_symmetry_space_group_name_H-M  'F-43m'
_cell_length_a       4.62268
_cell_length_b       4.62268
_cell_length_c       4.62269
_cell_angle_alpha    60
_cell_angle_beta     60
_cell_angle_gamma    60.0001

_symmetry_Int_Tables_number  216
_chemical_formula_structural  LiMgSbPt
_chemical_formula_sum  LiMgSbPt
_cell_volume  69.8502780891781
_cell_formula_units_Z  1
loop_
  _symmetry_equiv_pos_site_id
 _symmetry_equiv_pos_as_xyz
 1  'x, y, z'
loop_
 _atom_site_type_symbol
 _atom_site_label
 _atom_site_symmetry_multiplicity
 _atom_site_fract_x
 _atom_site_fract_y
 _atom_site_fract_z
 _atom_site_fract_occupancy
 Li  Li1  1  0.75000  0.75000  0.75000  1
 Mg  Mg1  1  0.50000  0.50000  0.50000  1
 Pt  Pt1  1  0.25000  0.25000  0.25000  1
 Sb  Sb1  1  0.00000  0.00000  0.00000  1
