CIF file written using JARVIS-Tools package.
data_KPb2
_symmetry_space_group_name_H-M  'P6_3/mmc'
_cell_length_a       6.72018
_cell_length_b       6.72018
_cell_length_c       10.8863
_cell_angle_alpha    90
_cell_angle_beta     90
_cell_angle_gamma    120

_symmetry_Int_Tables_number  194
_chemical_formula_structural  KPb2
_chemical_formula_sum  K4Pb8
_cell_volume  425.7694771546849
_cell_formula_units_Z  4
loop_
  _symmetry_equiv_pos_site_id
 _symmetry_equiv_pos_as_xyz
 1  'x, y, z'
loop_
 _atom_site_type_symbol
 _atom_site_label
 _atom_site_symmetry_multiplicity
 _atom_site_fract_x
 _atom_site_fract_y
 _atom_site_fract_z
 _atom_site_fract_occupancy
 K  K1  1  0.33333  0.66667  0.93540  1
 K  K2  1  0.66667  0.33333  0.43540  1
 K  K3  1  0.66667  0.33333  0.06460  1
 K  K4  1  0.33333  0.66667  0.56460  1
 Pb  Pb1  1  0.00000  0.00000  0.00000  1
 Pb  Pb2  1  0.00000  0.00000  0.50000  1
 Pb  Pb3  1  0.83251  0.16749  0.75000  1
 Pb  Pb4  1  0.16749  0.33498  0.25000  1
 Pb  Pb5  1  0.66502  0.83251  0.25000  1
 Pb  Pb6  1  0.33498  0.16749  0.75000  1
 Pb  Pb7  1  0.83251  0.66502  0.75000  1
 Pb  Pb8  1  0.16749  0.83251  0.25000  1
