CIF file written using JARVIS-Tools package.
data_PmCl2
_symmetry_space_group_name_H-M  'P4_2/mnm'
_cell_length_a       7.05611
_cell_length_b       7.05611
_cell_length_c       3.54783
_cell_angle_alpha    90
_cell_angle_beta     90
_cell_angle_gamma    90

_symmetry_Int_Tables_number  136
_chemical_formula_structural  PmCl2
_chemical_formula_sum  Pm2Cl4
_cell_volume  176.6416409653341
_cell_formula_units_Z  2
loop_
  _symmetry_equiv_pos_site_id
 _symmetry_equiv_pos_as_xyz
 1  'x, y, z'
loop_
 _atom_site_type_symbol
 _atom_site_label
 _atom_site_symmetry_multiplicity
 _atom_site_fract_x
 _atom_site_fract_y
 _atom_site_fract_z
 _atom_site_fract_occupancy
 Cl  Cl1  1  0.27911  0.27911  0.00000  1
 Cl  Cl2  1  0.72089  0.72089  0.00000  1
 Cl  Cl3  1  0.22089  0.77911  0.50000  1
 Cl  Cl4  1  0.77911  0.22089  0.50000  1
 Pm  Pm1  1  0.00000  0.00000  0.00000  1
 Pm  Pm2  1  0.50000  0.50000  0.50000  1
