CIF file written using JARVIS-Tools package.
data_BaMg2
_symmetry_space_group_name_H-M  'P6_3/mmc'
_cell_length_a       6.64394
_cell_length_b       6.64394
_cell_length_c       10.5085
_cell_angle_alpha    90
_cell_angle_beta     90
_cell_angle_gamma    120

_symmetry_Int_Tables_number  194
_chemical_formula_structural  BaMg2
_chemical_formula_sum  Ba4Mg8
_cell_volume  401.71922728287007
_cell_formula_units_Z  4
loop_
  _symmetry_equiv_pos_site_id
 _symmetry_equiv_pos_as_xyz
 1  'x, y, z'
loop_
 _atom_site_type_symbol
 _atom_site_label
 _atom_site_symmetry_multiplicity
 _atom_site_fract_x
 _atom_site_fract_y
 _atom_site_fract_z
 _atom_site_fract_occupancy
 Ba  Ba1  1  0.33333  0.66667  0.55662  1
 Ba  Ba2  1  0.66667  0.33333  0.05662  1
 Ba  Ba3  1  0.66667  0.33333  0.44338  1
 Ba  Ba4  1  0.33333  0.66667  0.94338  1
 Mg  Mg1  1  0.16185  0.83815  0.25000  1
 Mg  Mg2  1  0.83815  0.67631  0.75000  1
 Mg  Mg3  1  0.32369  0.16185  0.75000  1
 Mg  Mg4  1  0.67631  0.83815  0.25000  1
 Mg  Mg5  1  0.00000  0.00000  0.00000  1
 Mg  Mg6  1  0.00000  0.00000  0.50000  1
 Mg  Mg7  1  0.83815  0.16185  0.75000  1
 Mg  Mg8  1  0.16185  0.32369  0.25000  1
