CIF file written using JARVIS-Tools package.
data_BaMgAg4O8
_symmetry_space_group_name_H-M  'P-31m'
_cell_length_a       5.70842
_cell_length_b       5.70842
_cell_length_c       7.14724
_cell_angle_alpha    90
_cell_angle_beta     90
_cell_angle_gamma    120

_symmetry_Int_Tables_number  162
_chemical_formula_structural  BaMgAg4O8
_chemical_formula_sum  BaMgAg4O8
_cell_volume  201.69813969871743
_cell_formula_units_Z  1
loop_
  _symmetry_equiv_pos_site_id
 _symmetry_equiv_pos_as_xyz
 1  'x, y, z'
loop_
 _atom_site_type_symbol
 _atom_site_label
 _atom_site_symmetry_multiplicity
 _atom_site_fract_x
 _atom_site_fract_y
 _atom_site_fract_z
 _atom_site_fract_occupancy
 Ag  Ag1  1  0.33333  0.66667  0.70960  1
 Ag  Ag2  1  0.66667  0.33333  0.70960  1
 Ag  Ag3  1  0.33333  0.66667  0.29040  1
 Ag  Ag4  1  0.66667  0.33333  0.29040  1
 Ba  Ba1  1  0.00000  0.00000  0.00000  1
 Mg  Mg1  1  0.00000  0.00000  0.50000  1
 O  O1  1  0.28179  0.28179  0.68146  1
 O  O2  1  0.71821  0.00000  0.68146  1
 O  O3  1  0.00000  0.71821  0.68146  1
 O  O4  1  0.71821  0.71821  0.31854  1
 O  O5  1  -0.00000  0.28179  0.31854  1
 O  O6  1  0.28179  -0.00000  0.31854  1
 O  O7  1  0.33333  0.66667  0.00000  1
 O  O8  1  0.66667  0.33333  0.00000  1
