CIF file written using JARVIS-Tools package.
data_NbSe2
_symmetry_space_group_name_H-M  'R3m'
_cell_length_a       6.74608
_cell_length_b       6.74608
_cell_length_c       6.74607
_cell_angle_alpha    29.9647
_cell_angle_beta     29.9647
_cell_angle_gamma    29.9647

_symmetry_Int_Tables_number  160
_chemical_formula_structural  NbSe2
_chemical_formula_sum  NbSe2
_cell_volume  67.83752602846856
_cell_formula_units_Z  1
loop_
  _symmetry_equiv_pos_site_id
 _symmetry_equiv_pos_as_xyz
 1  'x, y, z'
loop_
 _atom_site_type_symbol
 _atom_site_label
 _atom_site_symmetry_multiplicity
 _atom_site_fract_x
 _atom_site_fract_y
 _atom_site_fract_z
 _atom_site_fract_occupancy
 Nb  Nb1  1  0.33242  0.33242  0.33242  1
 Se  Se1  1  0.57876  0.57876  0.57876  1
 Se  Se2  1  0.75315  0.75315  0.75315  1
