CIF file written using JARVIS-Tools package.
data_YbLiGe
_symmetry_space_group_name_H-M  'P-62m'
_cell_length_a       6.97824
_cell_length_b       6.97824
_cell_length_c       4.47731
_cell_angle_alpha    90
_cell_angle_beta     90
_cell_angle_gamma    120

_symmetry_Int_Tables_number  189
_chemical_formula_structural  YbLiGe
_chemical_formula_sum  Yb3Li3Ge3
_cell_volume  188.81590694903167
_cell_formula_units_Z  3
loop_
  _symmetry_equiv_pos_site_id
 _symmetry_equiv_pos_as_xyz
 1  'x, y, z'
loop_
 _atom_site_type_symbol
 _atom_site_label
 _atom_site_symmetry_multiplicity
 _atom_site_fract_x
 _atom_site_fract_y
 _atom_site_fract_z
 _atom_site_fract_occupancy
 Ge  Ge1  1  0.33333  0.66667  0.00000  1
 Ge  Ge2  1  0.66667  0.33333  0.00000  1
 Ge  Ge3  1  0.00000  0.00000  0.50000  1
 Li  Li1  1  0.22701  0.22701  0.00000  1
 Li  Li2  1  0.00000  0.77299  0.00000  1
 Li  Li3  1  0.77299  0.00000  0.00000  1
 Yb  Yb1  1  0.43137  0.00000  0.50000  1
 Yb  Yb2  1  0.56863  0.56863  0.50000  1
 Yb  Yb3  1  0.00000  0.43137  0.50000  1
