CIF file written using JARVIS-Tools package.
data_FeF2
_symmetry_space_group_name_H-M  'P4_2/mnm'
_cell_length_a       4.88979
_cell_length_b       4.88979
_cell_length_c       3.06712
_cell_angle_alpha    90
_cell_angle_beta     90
_cell_angle_gamma    90

_symmetry_Int_Tables_number  136
_chemical_formula_structural  FeF2
_chemical_formula_sum  Fe2F4
_cell_volume  73.33509710787916
_cell_formula_units_Z  2
loop_
  _symmetry_equiv_pos_site_id
 _symmetry_equiv_pos_as_xyz
 1  'x, y, z'
loop_
 _atom_site_type_symbol
 _atom_site_label
 _atom_site_symmetry_multiplicity
 _atom_site_fract_x
 _atom_site_fract_y
 _atom_site_fract_z
 _atom_site_fract_occupancy
 F  F1  1  0.70609  0.70609  0.00000  1
 F  F2  1  0.20609  0.79391  0.50000  1
 F  F3  1  0.29391  0.29391  0.00000  1
 F  F4  1  0.79391  0.20609  0.50000  1
 Fe  Fe1  1  0.50000  0.50000  0.50000  1
 Fe  Fe2  1  0.00000  0.00000  0.00000  1
