CIF file written using JARVIS-Tools package.
data_LaPd3S4
_symmetry_space_group_name_H-M  'Pm-3n'
_cell_length_a       6.79012
_cell_length_b       6.79012
_cell_length_c       6.79012
_cell_angle_alpha    90
_cell_angle_beta     90
_cell_angle_gamma    90

_symmetry_Int_Tables_number  223
_chemical_formula_structural  LaPd3S4
_chemical_formula_sum  La2Pd6S8
_cell_volume  313.0638560275536
_cell_formula_units_Z  2
loop_
  _symmetry_equiv_pos_site_id
 _symmetry_equiv_pos_as_xyz
 1  'x, y, z'
loop_
 _atom_site_type_symbol
 _atom_site_label
 _atom_site_symmetry_multiplicity
 _atom_site_fract_x
 _atom_site_fract_y
 _atom_site_fract_z
 _atom_site_fract_occupancy
 La  La1  1  0.50000  0.50000  0.50000  1
 La  La2  1  0.00000  0.00000  0.00000  1
 Pd  Pd1  1  0.75000  0.00000  0.50000  1
 Pd  Pd2  1  0.50000  0.75000  0.00000  1
 Pd  Pd3  1  0.00000  0.50000  0.75000  1
 Pd  Pd4  1  0.00000  0.50000  0.25000  1
 Pd  Pd5  1  0.25000  0.00000  0.50000  1
 Pd  Pd6  1  0.50000  0.25000  0.00000  1
 S  S1  1  0.75000  0.25000  0.25000  1
 S  S2  1  0.25000  0.25000  0.75000  1
 S  S3  1  0.25000  0.75000  0.25000  1
 S  S4  1  0.75000  0.75000  0.75000  1
 S  S5  1  0.25000  0.75000  0.75000  1
 S  S6  1  0.75000  0.75000  0.25000  1
 S  S7  1  0.25000  0.25000  0.25000  1
 S  S8  1  0.75000  0.25000  0.75000  1
