CIF file written using JARVIS-Tools package.
data_Tc
_symmetry_space_group_name_H-M  'P6_3/mmc'
_cell_length_a       2.75672
_cell_length_b       2.75672
_cell_length_c       4.39953
_cell_angle_alpha    90
_cell_angle_beta     90
_cell_angle_gamma    120

_symmetry_Int_Tables_number  194
_chemical_formula_structural  Tc
_chemical_formula_sum  Tc2
_cell_volume  28.95504649266069
_cell_formula_units_Z  2
loop_
  _symmetry_equiv_pos_site_id
 _symmetry_equiv_pos_as_xyz
 1  'x, y, z'
loop_
 _atom_site_type_symbol
 _atom_site_label
 _atom_site_symmetry_multiplicity
 _atom_site_fract_x
 _atom_site_fract_y
 _atom_site_fract_z
 _atom_site_fract_occupancy
 Tc  Tc1  1  0.33333  0.66667  0.75000  1
 Tc  Tc2  1  0.66667  0.33333  0.25000  1
