CIF file written using JARVIS-Tools package.
data_Sb
_symmetry_space_group_name_H-M  'R-3m'
_cell_length_a       4.61638
_cell_length_b       4.61639
_cell_length_c       4.61639
_cell_angle_alpha    56.6381
_cell_angle_beta     56.6381
_cell_angle_gamma    56.6381

_symmetry_Int_Tables_number  166
_chemical_formula_structural  Sb
_chemical_formula_sum  Sb2
_cell_volume  64.16315703945212
_cell_formula_units_Z  2
loop_
  _symmetry_equiv_pos_site_id
 _symmetry_equiv_pos_as_xyz
 1  'x, y, z'
loop_
 _atom_site_type_symbol
 _atom_site_label
 _atom_site_symmetry_multiplicity
 _atom_site_fract_x
 _atom_site_fract_y
 _atom_site_fract_z
 _atom_site_fract_occupancy
 Sb  Sb1  1  0.26720  0.26720  0.26720  1
 Sb  Sb2  1  0.73280  0.73280  0.73280  1
