CIF file written using JARVIS-Tools package.
data_Xe
_symmetry_space_group_name_H-M  'Fm-3m'
_cell_length_a       4.34315
_cell_length_b       4.34315
_cell_length_c       4.34315
_cell_angle_alpha    119.987
_cell_angle_beta     119.987
_cell_angle_gamma    60.0134

_symmetry_Int_Tables_number  225
_chemical_formula_structural  Xe
_chemical_formula_sum  Xe
_cell_volume  57.947290908391274
_cell_formula_units_Z  1
loop_
  _symmetry_equiv_pos_site_id
 _symmetry_equiv_pos_as_xyz
 1  'x, y, z'
loop_
 _atom_site_type_symbol
 _atom_site_label
 _atom_site_symmetry_multiplicity
 _atom_site_fract_x
 _atom_site_fract_y
 _atom_site_fract_z
 _atom_site_fract_occupancy
 Xe  Xe1  1  0.00000  0.00000  0.00000  1
