CIF file written using JARVIS-Tools package.
data_Te
_symmetry_space_group_name_H-M  'Pmc2_1'
_cell_length_a       3.20557
_cell_length_b       4.53726
_cell_length_c       9.09503
_cell_angle_alpha    90
_cell_angle_beta     90
_cell_angle_gamma    89.9746

_symmetry_Int_Tables_number  26
_chemical_formula_structural  Te
_chemical_formula_sum  Te4
_cell_volume  132.2829399391676
_cell_formula_units_Z  4
loop_
  _symmetry_equiv_pos_site_id
 _symmetry_equiv_pos_as_xyz
 1  'x, y, z'
loop_
 _atom_site_type_symbol
 _atom_site_label
 _atom_site_symmetry_multiplicity
 _atom_site_fract_x
 _atom_site_fract_y
 _atom_site_fract_z
 _atom_site_fract_occupancy
 Te  Te1  1  0.50010  0.51142  0.76007  1
 Te  Te2  1  0.49990  0.48858  0.26007  1
 Te  Te3  1  0.49982  0.99571  0.00993  1
 Te  Te4  1  0.50018  0.00429  0.50993  1
