CIF file written using JARVIS-Tools package.
data_Nb
_symmetry_space_group_name_H-M  'Fm-3m'
_cell_length_a       2.98892
_cell_length_b       2.98892
_cell_length_c       2.98892
_cell_angle_alpha    60
_cell_angle_beta     60
_cell_angle_gamma    59.9999

_symmetry_Int_Tables_number  225
_chemical_formula_structural  Nb
_chemical_formula_sum  Nb
_cell_volume  18.88108297110601
_cell_formula_units_Z  1
loop_
  _symmetry_equiv_pos_site_id
 _symmetry_equiv_pos_as_xyz
 1  'x, y, z'
loop_
 _atom_site_type_symbol
 _atom_site_label
 _atom_site_symmetry_multiplicity
 _atom_site_fract_x
 _atom_site_fract_y
 _atom_site_fract_z
 _atom_site_fract_occupancy
 Nb  Nb1  1  0.00000  0.00000  0.00000  1
