CIF file written using JARVIS-Tools package.
data_SmMgCd2
_symmetry_space_group_name_H-M  'Fm-3m'
_cell_length_a       5.12026
_cell_length_b       5.12026
_cell_length_c       5.12026
_cell_angle_alpha    60.0075
_cell_angle_beta     60.0075
_cell_angle_gamma    60.0075

_symmetry_Int_Tables_number  225
_chemical_formula_structural  SmMgCd2
_chemical_formula_sum  SmMgCd2
_cell_volume  94.93678024348036
_cell_formula_units_Z  1
loop_
  _symmetry_equiv_pos_site_id
 _symmetry_equiv_pos_as_xyz
 1  'x, y, z'
loop_
 _atom_site_type_symbol
 _atom_site_label
 _atom_site_symmetry_multiplicity
 _atom_site_fract_x
 _atom_site_fract_y
 _atom_site_fract_z
 _atom_site_fract_occupancy
 Cd  Cd1  1  0.00002  0.00002  0.00002  1
 Cd  Cd2  1  0.49998  0.49998  0.49998  1
 Mg  Mg1  1  0.25000  0.25000  0.25000  1
 Sm  Sm1  1  0.75000  0.75000  0.75000  1
