CIF file written using JARVIS-Tools package.
data_BaAl9Fe2
_symmetry_space_group_name_H-M  'P6/mmm'
_cell_length_a       8.01247
_cell_length_b       8.01247
_cell_length_c       3.96178
_cell_angle_alpha    90
_cell_angle_beta     90
_cell_angle_gamma    120

_symmetry_Int_Tables_number  191
_chemical_formula_structural  BaAl9Fe2
_chemical_formula_sum  BaAl9Fe2
_cell_volume  220.2686327344842
_cell_formula_units_Z  1
loop_
  _symmetry_equiv_pos_site_id
 _symmetry_equiv_pos_as_xyz
 1  'x, y, z'
loop_
 _atom_site_type_symbol
 _atom_site_label
 _atom_site_symmetry_multiplicity
 _atom_site_fract_x
 _atom_site_fract_y
 _atom_site_fract_z
 _atom_site_fract_occupancy
 Al  Al1  1  0.50000  0.00000  0.00000  1
 Al  Al2  1  0.50000  0.50000  0.00000  1
 Al  Al3  1  0.00000  0.50000  0.00000  1
 Al  Al4  1  0.21613  0.43227  0.50000  1
 Al  Al5  1  0.78387  0.21613  0.50000  1
 Al  Al6  1  0.43227  0.21613  0.50000  1
 Al  Al7  1  0.56773  0.78387  0.50000  1
 Al  Al8  1  0.21613  0.78387  0.50000  1
 Al  Al9  1  0.78387  0.56773  0.50000  1
 Ba  Ba1  1  0.00000  0.00000  0.00000  1
 Fe  Fe1  1  0.66667  0.33333  0.00000  1
 Fe  Fe2  1  0.33333  0.66667  0.00000  1
