CIF file written using JARVIS-Tools package.
data_H
_symmetry_space_group_name_H-M  'I4/mmm'
_cell_length_a       3.20713
_cell_length_b       3.20713
_cell_length_c       3.20713
_cell_angle_alpha    107.814
_cell_angle_beta     107.814
_cell_angle_gamma    112.839

_symmetry_Int_Tables_number  139
_chemical_formula_structural  H
_chemical_formula_sum  H2
_cell_volume  25.32751815686538
_cell_formula_units_Z  2
loop_
  _symmetry_equiv_pos_site_id
 _symmetry_equiv_pos_as_xyz
 1  'x, y, z'
loop_
 _atom_site_type_symbol
 _atom_site_label
 _atom_site_symmetry_multiplicity
 _atom_site_fract_x
 _atom_site_fract_y
 _atom_site_fract_z
 _atom_site_fract_occupancy
 H  H1  1  0.89416  0.89416  0.00000  1
 H  H2  1  0.10584  0.10584  0.00000  1
