CIF file written using JARVIS-Tools package.
data_LuTe2
_symmetry_space_group_name_H-M  'P4/nmm'
_cell_length_a       4.41662
_cell_length_b       4.41662
_cell_length_c       8.6877
_cell_angle_alpha    90
_cell_angle_beta     90
_cell_angle_gamma    90

_symmetry_Int_Tables_number  129
_chemical_formula_structural  LuTe2
_chemical_formula_sum  Lu2Te4
_cell_volume  169.46690815751938
_cell_formula_units_Z  2
loop_
  _symmetry_equiv_pos_site_id
 _symmetry_equiv_pos_as_xyz
 1  'x, y, z'
loop_
 _atom_site_type_symbol
 _atom_site_label
 _atom_site_symmetry_multiplicity
 _atom_site_fract_x
 _atom_site_fract_y
 _atom_site_fract_z
 _atom_site_fract_occupancy
 Lu  Lu1  1  0.00000  0.50000  0.27127  1
 Lu  Lu2  1  0.50000  0.00000  0.72873  1
 Te  Te1  1  0.50000  0.50000  0.00000  1
 Te  Te2  1  0.00000  0.00000  0.00000  1
 Te  Te3  1  0.00000  0.50000  0.62767  1
 Te  Te4  1  0.50000  0.00000  0.37233  1
