CIF file written using JARVIS-Tools package.
data_TeW2SeS2
_symmetry_space_group_name_H-M  'P3m1'
_cell_length_a       3.31175
_cell_length_b       3.31172
_cell_length_c       34.2111
_cell_angle_alpha    90.0007
_cell_angle_beta     90
_cell_angle_gamma    120

_symmetry_Int_Tables_number  156
_chemical_formula_structural  TeW2SeS2
_chemical_formula_sum  Te2W4Se2S4
_cell_volume  324.9431756075423
_cell_formula_units_Z  2
loop_
  _symmetry_equiv_pos_site_id
 _symmetry_equiv_pos_as_xyz
 1  'x, y, z'
loop_
 _atom_site_type_symbol
 _atom_site_label
 _atom_site_symmetry_multiplicity
 _atom_site_fract_x
 _atom_site_fract_y
 _atom_site_fract_z
 _atom_site_fract_occupancy
 S  S1  1  0.33339  0.66678  0.32749  1
 S  S2  1  0.66689  0.33378  0.41816  1
 S  S3  1  0.66649  0.33298  0.50795  1
 S  S4  1  0.33333  0.66667  0.23770  1
 Se  Se1  1  0.66654  0.33309  0.04664  1
 Se  Se2  1  0.66665  0.33330  0.14526  1
 Te  Te1  1  0.33347  0.66695  0.71764  1
 Te  Te2  1  0.33323  0.66647  0.60497  1
 W  W1  1  0.33327  0.66654  0.09592  1
 W  W2  1  0.33338  0.66675  0.46304  1
 W  W3  1  0.66667  0.33334  0.28260  1
 W  W4  1  0.66668  0.33336  0.66138  1
