CIF file written using JARVIS-Tools package.
data_Sb
_symmetry_space_group_name_H-M  'Im-3m'
_cell_length_a       3.81316
_cell_length_b       3.30231
_cell_length_c       3.30211
_cell_angle_alpha    70.529
_cell_angle_beta     54.7358
_cell_angle_gamma    54.736

_symmetry_Int_Tables_number  229
_chemical_formula_structural  Sb
_chemical_formula_sum  Sb
_cell_volume  27.72073992115713
_cell_formula_units_Z  1
loop_
  _symmetry_equiv_pos_site_id
 _symmetry_equiv_pos_as_xyz
 1  'x, y, z'
loop_
 _atom_site_type_symbol
 _atom_site_label
 _atom_site_symmetry_multiplicity
 _atom_site_fract_x
 _atom_site_fract_y
 _atom_site_fract_z
 _atom_site_fract_occupancy
 Sb  Sb1  1  0.01758  0.99825  0.00203  1
