CIF file written using JARVIS-Tools package.
data_MgGeAs2
_symmetry_space_group_name_H-M  'I-42d'
_cell_length_a       5.9972
_cell_length_b       5.9972
_cell_length_c       7.05535
_cell_angle_alpha    115.151
_cell_angle_beta     115.151
_cell_angle_gamma    90

_symmetry_Int_Tables_number  122
_chemical_formula_structural  MgGeAs2
_chemical_formula_sum  Mg2Ge2As4
_cell_volume  202.8029731705581
_cell_formula_units_Z  2
loop_
  _symmetry_equiv_pos_site_id
 _symmetry_equiv_pos_as_xyz
 1  'x, y, z'
loop_
 _atom_site_type_symbol
 _atom_site_label
 _atom_site_symmetry_multiplicity
 _atom_site_fract_x
 _atom_site_fract_y
 _atom_site_fract_z
 _atom_site_fract_occupancy
 As  As1  1  0.12500  0.60408  0.75000  1
 As  As2  1  0.85408  0.87500  0.25000  1
 As  As3  1  0.62500  0.14592  0.75000  1
 As  As4  1  0.39592  0.37500  0.25000  1
 Ge  Ge1  1  0.75000  0.25000  0.50000  1
 Ge  Ge2  1  0.50000  0.50000  0.00000  1
 Mg  Mg1  1  0.00000  0.00000  0.00000  1
 Mg  Mg2  1  0.25000  0.75000  0.50000  1
