CIF file written using JARVIS-Tools package.
data_ErZnAsO
_symmetry_space_group_name_H-M  'P4/nmm'
_cell_length_a       3.92397
_cell_length_b       3.92397
_cell_length_c       8.86298
_cell_angle_alpha    90
_cell_angle_beta     90
_cell_angle_gamma    90

_symmetry_Int_Tables_number  129
_chemical_formula_structural  ErZnAsO
_chemical_formula_sum  Er2Zn2As2O2
_cell_volume  136.467923822299
_cell_formula_units_Z  2
loop_
  _symmetry_equiv_pos_site_id
 _symmetry_equiv_pos_as_xyz
 1  'x, y, z'
loop_
 _atom_site_type_symbol
 _atom_site_label
 _atom_site_symmetry_multiplicity
 _atom_site_fract_x
 _atom_site_fract_y
 _atom_site_fract_z
 _atom_site_fract_occupancy
 As  As1  1  0.50000  0.00000  0.31306  1
 As  As2  1  0.00000  0.50000  0.68694  1
 Er  Er1  1  0.00000  0.50000  0.12060  1
 Er  Er2  1  0.50000  0.00000  0.87940  1
 O  O1  1  0.50000  0.50000  0.00000  1
 O  O2  1  0.00000  0.00000  0.00000  1
 Zn  Zn1  1  0.50000  0.50000  0.50000  1
 Zn  Zn2  1  0.00000  0.00000  0.50000  1
