CIF file written using JARVIS-Tools package.
data_YbSi
_symmetry_space_group_name_H-M  'Cmcm'
_cell_length_a       3.87654
_cell_length_b       4.51122
_cell_length_c       5.76593
_cell_angle_alpha    113.029
_cell_angle_beta     90
_cell_angle_gamma    90

_symmetry_Int_Tables_number  63
_chemical_formula_structural  YbSi
_chemical_formula_sum  Yb2Si2
_cell_volume  92.79825267242623
_cell_formula_units_Z  2
loop_
  _symmetry_equiv_pos_site_id
 _symmetry_equiv_pos_as_xyz
 1  'x, y, z'
loop_
 _atom_site_type_symbol
 _atom_site_label
 _atom_site_symmetry_multiplicity
 _atom_site_fract_x
 _atom_site_fract_y
 _atom_site_fract_z
 _atom_site_fract_occupancy
 Si  Si1  1  0.25000  0.57091  0.14183  1
 Si  Si2  1  0.75000  0.42909  0.85817  1
 Yb  Yb1  1  0.25000  0.86094  0.72189  1
 Yb  Yb2  1  0.75000  0.13906  0.27811  1
