CIF file written using JARVIS-Tools package.
data_Te
_symmetry_space_group_name_H-M  'Pm-3m'
_cell_length_a       4.53803
_cell_length_b       4.53803
_cell_length_c       4.53802
_cell_angle_alpha    60.0013
_cell_angle_beta     60.0012
_cell_angle_gamma    60.0012

_symmetry_Int_Tables_number  221
_chemical_formula_structural  Te
_chemical_formula_sum  Te2
_cell_volume  66.08430034245201
_cell_formula_units_Z  2
loop_
  _symmetry_equiv_pos_site_id
 _symmetry_equiv_pos_as_xyz
 1  'x, y, z'
loop_
 _atom_site_type_symbol
 _atom_site_label
 _atom_site_symmetry_multiplicity
 _atom_site_fract_x
 _atom_site_fract_y
 _atom_site_fract_z
 _atom_site_fract_occupancy
 Te  Te1  1  0.25000  0.25000  0.25000  1
 Te  Te2  1  0.75000  0.75000  0.75000  1
