CIF file written using JARVIS-Tools package.
data_Pm5Mg
_symmetry_space_group_name_H-M  'Amm2'
_cell_length_a       3.65294
_cell_length_b       9.25298
_cell_length_c       5.75715
_cell_angle_alpha    90
_cell_angle_beta     90
_cell_angle_gamma    78.6155

_symmetry_Int_Tables_number  38
_chemical_formula_structural  Pm5Mg
_chemical_formula_sum  Pm5Mg
_cell_volume  190.76654474435864
_cell_formula_units_Z  1
loop_
  _symmetry_equiv_pos_site_id
 _symmetry_equiv_pos_as_xyz
 1  'x, y, z'
loop_
 _atom_site_type_symbol
 _atom_site_label
 _atom_site_symmetry_multiplicity
 _atom_site_fract_x
 _atom_site_fract_y
 _atom_site_fract_z
 _atom_site_fract_occupancy
 Mg  Mg1  1  0.78191  0.43618  0.50000  1
 Pm  Pm1  1  0.99399  0.01202  0.00000  1
 Pm  Pm2  1  0.32552  0.34896  0.00000  1
 Pm  Pm3  1  0.66509  0.66982  0.00000  1
 Pm  Pm4  1  0.44619  0.10762  0.50000  1
 Pm  Pm5  1  0.12064  0.75872  0.50000  1
