CIF file written using JARVIS-Tools package.
data_Sm2Ag2O5
_symmetry_space_group_name_H-M  'P4/mmm'
_cell_length_a       4.12625
_cell_length_b       4.12625
_cell_length_c       7.1114
_cell_angle_alpha    90
_cell_angle_beta     90
_cell_angle_gamma    90

_symmetry_Int_Tables_number  123
_chemical_formula_structural  Sm2Ag2O5
_chemical_formula_sum  Sm2Ag2O5
_cell_volume  121.07829322544796
_cell_formula_units_Z  1
loop_
  _symmetry_equiv_pos_site_id
 _symmetry_equiv_pos_as_xyz
 1  'x, y, z'
loop_
 _atom_site_type_symbol
 _atom_site_label
 _atom_site_symmetry_multiplicity
 _atom_site_fract_x
 _atom_site_fract_y
 _atom_site_fract_z
 _atom_site_fract_occupancy
 Ag  Ag1  1  0.50000  0.50000  0.19379  1
 Ag  Ag2  1  0.50000  0.50000  0.80621  1
 O  O1  1  0.50000  0.00000  0.21583  1
 O  O2  1  0.50000  0.00000  0.78417  1
 O  O3  1  0.50000  0.50000  0.50000  1
 O  O4  1  0.00000  0.50000  0.21583  1
 O  O5  1  0.00000  0.50000  0.78417  1
 Sm  Sm1  1  0.00000  0.00000  0.00000  1
 Sm  Sm2  1  0.00000  0.00000  0.50000  1
