CIF file written using JARVIS-Tools package.
data_ErP2Ru2
_symmetry_space_group_name_H-M  'I4/mmm'
_cell_length_a       4.05759
_cell_length_b       4.0576
_cell_length_c       5.54938
_cell_angle_alpha    111.444
_cell_angle_beta     111.444
_cell_angle_gamma    90

_symmetry_Int_Tables_number  139
_chemical_formula_structural  ErP2Ru2
_chemical_formula_sum  ErP2Ru2
_cell_volume  78.20639828793844
_cell_formula_units_Z  1
loop_
  _symmetry_equiv_pos_site_id
 _symmetry_equiv_pos_as_xyz
 1  'x, y, z'
loop_
 _atom_site_type_symbol
 _atom_site_label
 _atom_site_symmetry_multiplicity
 _atom_site_fract_x
 _atom_site_fract_y
 _atom_site_fract_z
 _atom_site_fract_occupancy
 Er  Er1  1  0.00000  0.00000  0.00000  1
 P  P1  1  0.62382  0.62382  0.24764  1
 P  P2  1  0.37618  0.37618  0.75236  1
 Ru  Ru1  1  0.75000  0.25000  0.50000  1
 Ru  Ru2  1  0.25000  0.75000  0.50000  1
