CIF file written using JARVIS-Tools package.
data_CdI2
_symmetry_space_group_name_H-M  'P3m1'
_cell_length_a       4.28724
_cell_length_b       4.28724
_cell_length_c       68.7624
_cell_angle_alpha    90
_cell_angle_beta     90
_cell_angle_gamma    120

_symmetry_Int_Tables_number  156
_chemical_formula_structural  CdI2
_chemical_formula_sum  Cd0I20
_cell_volume  1094.5547591155657
_cell_formula_units_Z  10
loop_
  _symmetry_equiv_pos_site_id
 _symmetry_equiv_pos_as_xyz
 1  'x, y, z'
loop_
 _atom_site_type_symbol
 _atom_site_label
 _atom_site_symmetry_multiplicity
 _atom_site_fract_x
 _atom_site_fract_y
 _atom_site_fract_z
 _atom_site_fract_occupancy
 Cd  Cd1  1  0.66667  0.33333  0.32500  1
 Cd  Cd2  1  0.00000  0.00000  0.72497  1
 Cd  Cd3  1  0.66667  0.33333  0.02499  1
 Cd  Cd4  1  0.66667  0.33333  0.22501  1
 Cd  Cd5  1  0.66667  0.33333  0.92501  1
 Cd  Cd6  1  0.66667  0.33333  0.12501  1
 Cd  Cd7  1  0.66667  0.33333  0.42500  1
 Cd  Cd8  1  0.00000  0.00000  0.62501  1
 Cd  Cd9  1  0.00000  0.00000  0.82497  1
 Cd  Cd10  1  0.00000  0.00000  0.52501  1
 I  I1  1  0.00000  0.00000  0.19980  1
 I  I2  1  0.00000  0.00000  0.09980  1
 I  I3  1  0.33333  0.66667  0.45022  1
 I  I4  1  0.33333  0.66667  0.35022  1
 I  I5  1  0.33333  0.66667  0.95022  1
 I  I6  1  0.33333  0.66667  0.65022  1
 I  I7  1  0.66667  0.33333  0.69976  1
 I  I8  1  0.00000  0.00000  0.39980  1
 I  I9  1  0.00000  0.00000  0.29979  1
 I  I10  1  0.33333  0.66667  0.85020  1
 I  I11  1  0.66667  0.33333  0.59980  1
 I  I12  1  0.00000  0.00000  0.99978  1
 I  I13  1  0.33333  0.66667  0.55023  1
 I  I14  1  0.66667  0.33333  0.79977  1
 I  I15  1  0.33333  0.66667  0.25022  1
 I  I16  1  0.66667  0.33333  0.49981  1
 I  I17  1  0.33333  0.66667  0.15022  1
 I  I18  1  0.33333  0.66667  0.05020  1
 I  I19  1  0.00000  0.00000  0.89980  1
 I  I20  1  0.33333  0.66667  0.75018  1
