CIF file written using JARVIS-Tools package.
data_Er
_symmetry_space_group_name_H-M  'P6_3/mmc'
_cell_length_a       3.53784
_cell_length_b       3.53784
_cell_length_c       5.50873
_cell_angle_alpha    90
_cell_angle_beta     90
_cell_angle_gamma    119.999

_symmetry_Int_Tables_number  194
_chemical_formula_structural  Er
_chemical_formula_sum  Er2
_cell_volume  59.71231532382374
_cell_formula_units_Z  2
loop_
  _symmetry_equiv_pos_site_id
 _symmetry_equiv_pos_as_xyz
 1  'x, y, z'
loop_
 _atom_site_type_symbol
 _atom_site_label
 _atom_site_symmetry_multiplicity
 _atom_site_fract_x
 _atom_site_fract_y
 _atom_site_fract_z
 _atom_site_fract_occupancy
 Er  Er1  1  0.66668  0.33332  0.75000  1
 Er  Er2  1  0.33332  0.66668  0.25000  1
