CIF file written using JARVIS-Tools package.
data_Sc2C
_symmetry_space_group_name_H-M  'P-3m1'
_cell_length_a       3.31526
_cell_length_b       3.31526
_cell_length_c       5.62923
_cell_angle_alpha    90
_cell_angle_beta     90
_cell_angle_gamma    120

_symmetry_Int_Tables_number  164
_chemical_formula_structural  Sc2C
_chemical_formula_sum  Sc2C
_cell_volume  53.58140900987791
_cell_formula_units_Z  1
loop_
  _symmetry_equiv_pos_site_id
 _symmetry_equiv_pos_as_xyz
 1  'x, y, z'
loop_
 _atom_site_type_symbol
 _atom_site_label
 _atom_site_symmetry_multiplicity
 _atom_site_fract_x
 _atom_site_fract_y
 _atom_site_fract_z
 _atom_site_fract_occupancy
 C  C1  1  0.00000  0.00000  0.50000  1
 Sc  Sc1  1  0.66667  0.33333  0.28130  1
 Sc  Sc2  1  0.33333  0.66667  0.71870  1
