CIF file written using JARVIS-Tools package.
data_BaNa2Sr
_symmetry_space_group_name_H-M  'Immm'
_cell_length_a       15.6717
_cell_length_b       15.1539
_cell_length_c       15.1538
_cell_angle_alpha    59.1507
_cell_angle_beta     58.861
_cell_angle_gamma    58.861

_symmetry_Int_Tables_number  71
_chemical_formula_structural  BaNa2Sr
_chemical_formula_sum  BaNa2Sr
_cell_volume  2484.187392783682
_cell_formula_units_Z  1
loop_
  _symmetry_equiv_pos_site_id
 _symmetry_equiv_pos_as_xyz
 1  'x, y, z'
loop_
 _atom_site_type_symbol
 _atom_site_label
 _atom_site_symmetry_multiplicity
 _atom_site_fract_x
 _atom_site_fract_y
 _atom_site_fract_z
 _atom_site_fract_occupancy
 Ba  Ba1  1  0.50000  -0.00000  -0.00000  1
 Na  Na1  1  0.75314  -0.00000  -0.00000  1
 Na  Na2  1  0.24686  0.00000  0.00000  1
 Sr  Sr1  1  -0.00000  0.00000  0.00000  1
