CIF file written using JARVIS-Tools package.
data_CoSnF6
_symmetry_space_group_name_H-M  'R-3'
_cell_length_a       5.52493
_cell_length_b       5.52494
_cell_length_c       5.52494
_cell_angle_alpha    54.7891
_cell_angle_beta     54.789
_cell_angle_gamma    54.7891

_symmetry_Int_Tables_number  148
_chemical_formula_structural  CoSnF6
_chemical_formula_sum  CoSnF6
_cell_volume  104.78133077040862
_cell_formula_units_Z  1
loop_
  _symmetry_equiv_pos_site_id
 _symmetry_equiv_pos_as_xyz
 1  'x, y, z'
loop_
 _atom_site_type_symbol
 _atom_site_label
 _atom_site_symmetry_multiplicity
 _atom_site_fract_x
 _atom_site_fract_y
 _atom_site_fract_z
 _atom_site_fract_occupancy
 Co  Co1  1  0.50000  0.50000  0.50000  1
 F  F1  1  0.24940  0.89833  0.60448  1
 F  F2  1  0.89833  0.60448  0.24940  1
 F  F3  1  0.39552  0.75060  0.10167  1
 F  F4  1  0.10167  0.39552  0.75060  1
 F  F5  1  0.75060  0.10167  0.39552  1
 F  F6  1  0.60448  0.24940  0.89833  1
 Sn  Sn1  1  0.00000  0.00000  0.00000  1
