CIF file written using JARVIS-Tools package.
data_Be2FePt
_symmetry_space_group_name_H-M  'Immm'
_cell_length_a       9.04422
_cell_length_b       5.19365
_cell_length_c       5.19366
_cell_angle_alpha    50.0912
_cell_angle_beta     29.4601
_cell_angle_gamma    29.4601

_symmetry_Int_Tables_number  71
_chemical_formula_structural  Be2FePt
_chemical_formula_sum  Be2FePt
_cell_volume  51.70789025451408
_cell_formula_units_Z  1
loop_
  _symmetry_equiv_pos_site_id
 _symmetry_equiv_pos_as_xyz
 1  'x, y, z'
loop_
 _atom_site_type_symbol
 _atom_site_label
 _atom_site_symmetry_multiplicity
 _atom_site_fract_x
 _atom_site_fract_y
 _atom_site_fract_z
 _atom_site_fract_occupancy
 Be  Be1  1  0.74781  -0.00000  0.00000  1
 Be  Be2  1  0.25219  0.00000  -0.00000  1
 Fe  Fe1  1  0.00000  0.00000  0.00000  1
 Pt  Pt1  1  0.50000  -0.00000  -0.00000  1
