CIF file written using JARVIS-Tools package.
data_AlTc2Sb
_symmetry_space_group_name_H-M  'Immm'
_cell_length_a       10.1027
_cell_length_b       10.7663
_cell_length_c       10.7663
_cell_angle_alpha    61.4614
_cell_angle_beta     62.0188
_cell_angle_gamma    62.0189

_symmetry_Int_Tables_number  71
_chemical_formula_structural  AlTc2Sb
_chemical_formula_sum  AlTc2Sb
_cell_volume  861.9942569462143
_cell_formula_units_Z  1
loop_
  _symmetry_equiv_pos_site_id
 _symmetry_equiv_pos_as_xyz
 1  'x, y, z'
loop_
 _atom_site_type_symbol
 _atom_site_label
 _atom_site_symmetry_multiplicity
 _atom_site_fract_x
 _atom_site_fract_y
 _atom_site_fract_z
 _atom_site_fract_occupancy
 Al  Al1  1  0.00000  0.00000  0.00000  1
 Sb  Sb1  1  0.50000  0.00000  0.00000  1
 Tc  Tc1  1  0.75216  -0.00000  0.00000  1
 Tc  Tc2  1  0.24784  0.00000  -0.00000  1
