CIF file written using JARVIS-Tools package.
data_NiO2
_symmetry_space_group_name_H-M  'R-3m'
_cell_length_a       4.95866
_cell_length_b       4.95866
_cell_length_c       4.95867
_cell_angle_alpha    33.0711
_cell_angle_beta     33.0711
_cell_angle_gamma    33.0711

_symmetry_Int_Tables_number  166
_chemical_formula_structural  NiO2
_chemical_formula_sum  NiO2
_cell_volume  32.31233946316445
_cell_formula_units_Z  1
loop_
  _symmetry_equiv_pos_site_id
 _symmetry_equiv_pos_as_xyz
 1  'x, y, z'
loop_
 _atom_site_type_symbol
 _atom_site_label
 _atom_site_symmetry_multiplicity
 _atom_site_fract_x
 _atom_site_fract_y
 _atom_site_fract_z
 _atom_site_fract_occupancy
 Ni  Ni1  1  0.00000  0.00000  0.00000  1
 O  O1  1  0.59956  0.59956  0.59956  1
 O  O2  1  0.40044  0.40044  0.40044  1
