CIF file written using JARVIS-Tools package.
data_SrAs2O6
_symmetry_space_group_name_H-M  'P6_3/mcm'
_cell_length_a       4.94352
_cell_length_b       4.94352
_cell_length_c       10.9131
_cell_angle_alpha    90
_cell_angle_beta     90
_cell_angle_gamma    120

_symmetry_Int_Tables_number  193
_chemical_formula_structural  SrAs2O6
_chemical_formula_sum  Sr2As4O2
_cell_volume  230.9682509839745
_cell_formula_units_Z  2
loop_
  _symmetry_equiv_pos_site_id
 _symmetry_equiv_pos_as_xyz
 1  'x, y, z'
loop_
 _atom_site_type_symbol
 _atom_site_label
 _atom_site_symmetry_multiplicity
 _atom_site_fract_x
 _atom_site_fract_y
 _atom_site_fract_z
 _atom_site_fract_occupancy
 As  As1  1  0.33333  0.66667  0.00000  1
 As  As2  1  0.66667  0.33333  0.00000  1
 As  As3  1  0.33333  0.66667  0.50000  1
 As  As4  1  0.66667  0.33333  0.50000  1
 O  O1  1  0.00000  0.61717  0.40313  1
 O  O2  1  -0.00000  0.38283  0.90313  1
 O  O3  1  0.38283  -0.00000  0.90313  1
 O  O4  1  0.61717  0.00000  0.09687  1
 O  O5  1  -0.00000  0.38283  0.59687  1
 O  O6  1  0.61717  0.61717  0.90313  1
 O  O7  1  0.38283  0.38283  0.09687  1
 O  O8  1  0.61717  0.00000  0.40313  1
 O  O9  1  0.38283  -0.00000  0.59687  1
 O  O10  1  0.38283  0.38283  0.40313  1
 O  O11  1  0.00000  0.61717  0.09687  1
 O  O12  1  0.61717  0.61717  0.59687  1
 Sr  Sr1  1  0.00000  0.00000  0.25000  1
 Sr  Sr2  1  0.00000  0.00000  0.75000  1
