CIF file written using JARVIS-Tools package.
data_SmP3
_symmetry_space_group_name_H-M  'I4/mmm'
_cell_length_a       5.62249
_cell_length_b       5.62249
_cell_length_c       5.62249
_cell_angle_alpha    138.663
_cell_angle_beta     138.663
_cell_angle_gamma    59.8895

_symmetry_Int_Tables_number  139
_chemical_formula_structural  SmP3
_chemical_formula_sum  SmP3
_cell_volume  76.74980949742739
_cell_formula_units_Z  1
loop_
  _symmetry_equiv_pos_site_id
 _symmetry_equiv_pos_as_xyz
 1  'x, y, z'
loop_
 _atom_site_type_symbol
 _atom_site_label
 _atom_site_symmetry_multiplicity
 _atom_site_fract_x
 _atom_site_fract_y
 _atom_site_fract_z
 _atom_site_fract_occupancy
 P  P1  1  0.75000  0.25000  0.50000  1
 P  P2  1  0.25000  0.75000  0.50000  1
 P  P3  1  0.50000  0.50000  0.00000  1
 Sm  Sm1  1  0.00000  0.00000  0.00000  1
