CIF file written using JARVIS-Tools package.
data_FeCo2O6
_symmetry_space_group_name_H-M  'C2/m'
_cell_length_a       6.15707
_cell_length_b       2.82105
_cell_length_c       5.46936
_cell_angle_alpha    90
_cell_angle_beta     100.149
_cell_angle_gamma    76.7565

_symmetry_Int_Tables_number  12
_chemical_formula_structural  FeCo2O6
_chemical_formula_sum  FeCo2O6
_cell_volume  90.94566542206218
_cell_formula_units_Z  1
loop_
  _symmetry_equiv_pos_site_id
 _symmetry_equiv_pos_as_xyz
 1  'x, y, z'
loop_
 _atom_site_type_symbol
 _atom_site_label
 _atom_site_symmetry_multiplicity
 _atom_site_fract_x
 _atom_site_fract_y
 _atom_site_fract_z
 _atom_site_fract_occupancy
 Co  Co1  1  0.00029  -0.00015  -0.00107  1
 Co  Co2  1  0.66638  0.66681  0.66774  1
 Fe  Fe1  1  0.33333  0.33333  0.33333  1
 O  O1  1  0.01876  0.49062  0.23163  1
 O  O2  1  0.34573  0.82714  0.56425  1
 O  O3  1  0.68615  0.15692  0.89549  1
 O  O4  1  0.32094  0.83953  0.10242  1
 O  O5  1  0.64791  0.17604  0.43503  1
 O  O6  1  0.98052  0.50974  0.77118  1
