CIF file written using JARVIS-Tools package.
data_CdInGaS4
_symmetry_space_group_name_H-M  'P3m1'
_cell_length_a       4.02836
_cell_length_b       4.02836
_cell_length_c       12.6082
_cell_angle_alpha    90
_cell_angle_beta     90
_cell_angle_gamma    120

_symmetry_Int_Tables_number  156
_chemical_formula_structural  CdInGaS4
_chemical_formula_sum  CdInGaS4
_cell_volume  177.19103528023604
_cell_formula_units_Z  1
loop_
  _symmetry_equiv_pos_site_id
 _symmetry_equiv_pos_as_xyz
 1  'x, y, z'
loop_
 _atom_site_type_symbol
 _atom_site_label
 _atom_site_symmetry_multiplicity
 _atom_site_fract_x
 _atom_site_fract_y
 _atom_site_fract_z
 _atom_site_fract_occupancy
 Cd  Cd1  1  0.00000  0.00000  0.54347  1
 Ga  Ga1  1  0.33333  0.66667  0.26108  1
 In  In1  1  0.33333  0.66667  0.83023  1
 S  S1  1  0.00000  0.00000  0.34317  1
 S  S2  1  0.66667  0.33333  0.90539  1
 S  S3  1  0.33333  0.66667  0.62681  1
 S  S4  1  0.33333  0.66667  0.09485  1
