CIF file written using JARVIS-Tools package.
data_Te2MoWSeS
_symmetry_space_group_name_H-M  'P3m1'
_cell_length_a       3.41003
_cell_length_b       3.41004
_cell_length_c       37.1023
_cell_angle_alpha    90.0008
_cell_angle_beta     90
_cell_angle_gamma    120

_symmetry_Int_Tables_number  156
_chemical_formula_structural  Te2MoWSeS
_chemical_formula_sum  Te4Mo2W2Se2S2
_cell_volume  373.6366386497783
_cell_formula_units_Z  2
loop_
  _symmetry_equiv_pos_site_id
 _symmetry_equiv_pos_as_xyz
 1  'x, y, z'
loop_
 _atom_site_type_symbol
 _atom_site_label
 _atom_site_symmetry_multiplicity
 _atom_site_fract_x
 _atom_site_fract_y
 _atom_site_fract_z
 _atom_site_fract_occupancy
 Mo  Mo1  1  0.33332  0.66664  0.09640  1
 Mo  Mo2  1  0.66669  0.33338  0.65848  1
 S  S1  1  0.66664  0.33329  0.05598  1
 S  S2  1  0.66666  0.33332  0.13685  1
 Se  Se1  1  0.33336  0.66672  0.70280  1
 Se  Se2  1  0.33335  0.66670  0.61408  1
 Te  Te1  1  0.33333  0.66666  0.32620  1
 Te  Te2  1  0.66667  0.33333  0.42186  1
 Te  Te3  1  0.66668  0.33335  0.52340  1
 Te  Te4  1  0.33332  0.66663  0.22461  1
 W  W1  1  0.33334  0.66667  0.47264  1
 W  W2  1  0.66666  0.33332  0.27543  1
