CIF file written using JARVIS-Tools package.
data_Yb2TeO2
_symmetry_space_group_name_H-M  'I4/mmm'
_cell_length_a       7.54518
_cell_length_b       7.54518
_cell_length_c       7.54518
_cell_angle_alpha    151.013
_cell_angle_beta     151.013
_cell_angle_gamma    41.4566

_symmetry_Int_Tables_number  139
_chemical_formula_structural  Yb2TeO2
_chemical_formula_sum  Yb2TeO2
_cell_volume  100.65317910370979
_cell_formula_units_Z  1
loop_
  _symmetry_equiv_pos_site_id
 _symmetry_equiv_pos_as_xyz
 1  'x, y, z'
loop_
 _atom_site_type_symbol
 _atom_site_label
 _atom_site_symmetry_multiplicity
 _atom_site_fract_x
 _atom_site_fract_y
 _atom_site_fract_z
 _atom_site_fract_occupancy
 O  O1  1  0.75000  0.25000  0.50000  1
 O  O2  1  0.25000  0.75000  0.50000  1
 Te  Te1  1  0.00000  0.00000  0.00000  1
 Yb  Yb1  1  0.32831  0.32831  -0.00000  1
 Yb  Yb2  1  0.67169  0.67169  0.00000  1
