CIF file written using JARVIS-Tools package.
data_PrTlTe2
_symmetry_space_group_name_H-M  'R-3m'
_cell_length_a       4.58196
_cell_length_b       4.58196
_cell_length_c       8.53275
_cell_angle_alpha    74.4254
_cell_angle_beta     74.4254
_cell_angle_gamma    60

_symmetry_Int_Tables_number  166
_chemical_formula_structural  PrTlTe2
_chemical_formula_sum  PrTlTe2
_cell_volume  147.49510176933663
_cell_formula_units_Z  1
loop_
  _symmetry_equiv_pos_site_id
 _symmetry_equiv_pos_as_xyz
 1  'x, y, z'
loop_
 _atom_site_type_symbol
 _atom_site_label
 _atom_site_symmetry_multiplicity
 _atom_site_fract_x
 _atom_site_fract_y
 _atom_site_fract_z
 _atom_site_fract_occupancy
 Pr  Pr1  1  0.00000  0.00000  0.00000  1
 Te  Te1  1  0.74135  0.74135  0.77595  1
 Te  Te2  1  0.25865  0.25865  0.22405  1
 Tl  Tl1  1  0.50000  0.50000  0.50000  1
