CIF file written using JARVIS-Tools package.
data_Te2MoW3Se4S2
_symmetry_space_group_name_H-M  'P3m1'
_cell_length_a       3.34625
_cell_length_b       3.34626
_cell_length_c       36.1859
_cell_angle_alpha    90.0003
_cell_angle_beta     90
_cell_angle_gamma    120

_symmetry_Int_Tables_number  156
_chemical_formula_structural  Te2MoW3Se4S2
_chemical_formula_sum  Te2MoW3Se4S2
_cell_volume  350.90256327341024
_cell_formula_units_Z  1
loop_
  _symmetry_equiv_pos_site_id
 _symmetry_equiv_pos_as_xyz
 1  'x, y, z'
loop_
 _atom_site_type_symbol
 _atom_site_label
 _atom_site_symmetry_multiplicity
 _atom_site_fract_x
 _atom_site_fract_y
 _atom_site_fract_z
 _atom_site_fract_occupancy
 Mo  Mo1  1  0.66668  0.33337  0.27516  1
 S  S1  1  0.66664  0.33328  0.05753  1
 S  S2  1  0.66666  0.33332  0.14170  1
 Se  Se1  1  0.33335  0.66670  0.32124  1
 Se  Se2  1  0.33333  0.66666  0.70679  1
 Se  Se3  1  0.33335  0.66671  0.22910  1
 Se  Se4  1  0.33334  0.66669  0.61431  1
 Te  Te1  1  0.66665  0.33331  0.41479  1
 Te  Te2  1  0.66667  0.33333  0.52035  1
 W  W1  1  0.33332  0.66664  0.09960  1
 W  W2  1  0.33333  0.66665  0.46758  1
 W  W3  1  0.66667  0.33334  0.66059  1
