CIF file written using JARVIS-Tools package.
data_Li2CrO3
_symmetry_space_group_name_H-M  'C2/m'
_cell_length_a       4.96081
_cell_length_b       4.96081
_cell_length_c       5.01999
_cell_angle_alpha    80.2835
_cell_angle_beta     99.7165
_cell_angle_gamma    60.1546

_symmetry_Int_Tables_number  12
_chemical_formula_structural  Li2CrO3
_chemical_formula_sum  Li4Cr2O6
_cell_volume  100.89653512082684
_cell_formula_units_Z  2
loop_
  _symmetry_equiv_pos_site_id
 _symmetry_equiv_pos_as_xyz
 1  'x, y, z'
loop_
 _atom_site_type_symbol
 _atom_site_label
 _atom_site_symmetry_multiplicity
 _atom_site_fract_x
 _atom_site_fract_y
 _atom_site_fract_z
 _atom_site_fract_occupancy
 Cr  Cr1  1  0.33274  0.33274  -0.00000  1
 Cr  Cr2  1  0.66726  0.66726  0.00000  1
 Li  Li1  1  0.50000  0.50000  0.50000  1
 Li  Li2  1  0.83988  0.83988  0.50000  1
 Li  Li3  1  0.16012  0.16012  0.50000  1
 Li  Li4  1  0.00000  0.00000  0.00000  1
 O  O1  1  0.27986  0.72014  0.76935  1
 O  O2  1  0.07643  0.56605  0.22595  1
 O  O3  1  0.43395  0.92357  0.22595  1
 O  O4  1  0.92357  0.43395  0.77405  1
 O  O5  1  0.56605  0.07643  0.77405  1
 O  O6  1  0.72014  0.27986  0.23065  1
