CIF file written using JARVIS-Tools package.
data_Fe8N
_symmetry_space_group_name_H-M  'I4/mmm'
_cell_length_a       5.06219
_cell_length_b       5.06219
_cell_length_c       5.06219
_cell_angle_alpha    104.109
_cell_angle_beta     112.217
_cell_angle_gamma    112.217

_symmetry_Int_Tables_number  139
_chemical_formula_structural  Fe8N
_chemical_formula_sum  Fe8N
_cell_volume  99.21261937320078
_cell_formula_units_Z  1
loop_
  _symmetry_equiv_pos_site_id
 _symmetry_equiv_pos_as_xyz
 1  'x, y, z'
loop_
 _atom_site_type_symbol
 _atom_site_label
 _atom_site_symmetry_multiplicity
 _atom_site_fract_x
 _atom_site_fract_y
 _atom_site_fract_z
 _atom_site_fract_occupancy
 Fe  Fe1  1  0.50000  0.25000  0.75000  1
 Fe  Fe2  1  -0.00000  0.29437  0.29437  1
 Fe  Fe3  1  0.00000  0.70563  0.70563  1
 Fe  Fe4  1  0.48709  0.24354  0.24354  1
 Fe  Fe5  1  0.00000  0.24354  0.75646  1
 Fe  Fe6  1  -0.00000  0.75646  0.24354  1
 Fe  Fe7  1  0.51291  0.75646  0.75646  1
 Fe  Fe8  1  0.50000  0.75000  0.25000  1
 N  N1  1  0.00000  0.00000  0.00000  1
