CIF file written using JARVIS-Tools package.
data_Tb6Br7
_symmetry_space_group_name_H-M  'C2/m'
_cell_length_a       3.75538
_cell_length_b       10.6135
_cell_length_c       10.6592
_cell_angle_alpha    66.4839
_cell_angle_beta     79.854
_cell_angle_gamma    79.8098

_symmetry_Int_Tables_number  12
_chemical_formula_structural  Tb6Br7
_chemical_formula_sum  Tb6Br7
_cell_volume  380.78782769604794
_cell_formula_units_Z  1
loop_
  _symmetry_equiv_pos_site_id
 _symmetry_equiv_pos_as_xyz
 1  'x, y, z'
loop_
 _atom_site_type_symbol
 _atom_site_label
 _atom_site_symmetry_multiplicity
 _atom_site_fract_x
 _atom_site_fract_y
 _atom_site_fract_z
 _atom_site_fract_occupancy
 Br  Br1  1  0.50000  0.50000  0.50000  1
 Br  Br2  1  0.04824  0.16979  0.73372  1
 Br  Br3  1  0.95176  0.83021  0.26628  1
 Br  Br4  1  0.16330  0.51532  0.15808  1
 Br  Br5  1  0.83670  0.48468  0.84192  1
 Br  Br6  1  0.39766  0.15245  0.05223  1
 Br  Br7  1  0.60234  0.84755  0.94777  1
 Tb  Tb1  1  0.12809  0.29978  0.44405  1
 Tb  Tb2  1  0.87191  0.70022  0.55595  1
 Tb  Tb3  1  0.31941  0.00207  0.35911  1
 Tb  Tb4  1  0.68059  -0.00207  0.64089  1
 Tb  Tb5  1  0.77436  0.30046  0.15081  1
 Tb  Tb6  1  0.22564  0.69954  0.84919  1
