CIF file written using JARVIS-Tools package.
data_TiI3
_symmetry_space_group_name_H-M  'P6_3/mcm'
_cell_length_a       7.14253
_cell_length_b       7.14253
_cell_length_c       6.4186
_cell_angle_alpha    90
_cell_angle_beta     90
_cell_angle_gamma    120

_symmetry_Int_Tables_number  193
_chemical_formula_structural  TiI3
_chemical_formula_sum  Ti2I6
_cell_volume  283.5793086942573
_cell_formula_units_Z  2
loop_
  _symmetry_equiv_pos_site_id
 _symmetry_equiv_pos_as_xyz
 1  'x, y, z'
loop_
 _atom_site_type_symbol
 _atom_site_label
 _atom_site_symmetry_multiplicity
 _atom_site_fract_x
 _atom_site_fract_y
 _atom_site_fract_z
 _atom_site_fract_occupancy
 I  I1  1  0.32006  0.00000  0.25000  1
 I  I2  1  0.32006  0.32006  0.75000  1
 I  I3  1  -0.00000  0.67994  0.75000  1
 I  I4  1  0.00000  0.32006  0.25000  1
 I  I5  1  0.67994  0.67994  0.25000  1
 I  I6  1  0.67994  -0.00000  0.75000  1
 Ti  Ti1  1  0.00000  0.00000  0.00000  1
 Ti  Ti2  1  0.00000  0.00000  0.50000  1
