CIF file written using JARVIS-Tools package.
data_ZnFe2O4
_symmetry_space_group_name_H-M  'Fd-3m'
_cell_length_a       5.77653
_cell_length_b       5.77652
_cell_length_c       5.77652
_cell_angle_alpha    60
_cell_angle_beta     60
_cell_angle_gamma    60

_symmetry_Int_Tables_number  227
_chemical_formula_structural  ZnFe2O4
_chemical_formula_sum  Zn2Fe4O8
_cell_volume  136.29644676790352
_cell_formula_units_Z  2
loop_
  _symmetry_equiv_pos_site_id
 _symmetry_equiv_pos_as_xyz
 1  'x, y, z'
loop_
 _atom_site_type_symbol
 _atom_site_label
 _atom_site_symmetry_multiplicity
 _atom_site_fract_x
 _atom_site_fract_y
 _atom_site_fract_z
 _atom_site_fract_occupancy
 Fe  Fe1  1  0.50000  0.50000  0.50000  1
 Fe  Fe2  1  0.50000  0.00000  0.50000  1
 Fe  Fe3  1  0.00000  0.50000  0.50000  1
 Fe  Fe4  1  0.50000  0.50000  0.00000  1
 O  O1  1  0.73664  0.29009  0.73664  1
 O  O2  1  0.73664  0.73664  0.73664  1
 O  O3  1  0.26336  0.26336  0.70991  1
 O  O4  1  0.26336  0.70991  0.26336  1
 O  O5  1  0.26336  0.26336  0.26336  1
 O  O6  1  0.73664  0.73664  0.29009  1
 O  O7  1  0.29009  0.73664  0.73664  1
 O  O8  1  0.70991  0.26336  0.26336  1
 Zn  Zn1  1  0.87500  0.87500  0.87500  1
 Zn  Zn2  1  0.12500  0.12500  0.12500  1
