CIF file written using JARVIS-Tools package.
data_LuCoC
_symmetry_space_group_name_H-M  'P4_2/mmc'
_cell_length_a       3.58895
_cell_length_b       3.58895
_cell_length_c       6.59276
_cell_angle_alpha    90
_cell_angle_beta     90
_cell_angle_gamma    90

_symmetry_Int_Tables_number  131
_chemical_formula_structural  LuCoC
_chemical_formula_sum  Lu2Co2C2
_cell_volume  84.91825554789779
_cell_formula_units_Z  2
loop_
  _symmetry_equiv_pos_site_id
 _symmetry_equiv_pos_as_xyz
 1  'x, y, z'
loop_
 _atom_site_type_symbol
 _atom_site_label
 _atom_site_symmetry_multiplicity
 _atom_site_fract_x
 _atom_site_fract_y
 _atom_site_fract_z
 _atom_site_fract_occupancy
 C  C1  1  0.50000  0.00000  0.50000  1
 C  C2  1  0.00000  0.50000  0.00000  1
 Co  Co1  1  0.50000  0.50000  0.00000  1
 Co  Co2  1  0.50000  0.50000  0.50000  1
 Lu  Lu1  1  0.00000  0.00000  0.75000  1
 Lu  Lu2  1  0.00000  0.00000  0.25000  1
