CIF file written using JARVIS-Tools package.
data_SrGe
_symmetry_space_group_name_H-M  'Cmcm'
_cell_length_a       4.20764
_cell_length_b       4.80591
_cell_length_c       6.1886
_cell_angle_alpha    112.848
_cell_angle_beta     90
_cell_angle_gamma    90

_symmetry_Int_Tables_number  63
_chemical_formula_structural  SrGe
_chemical_formula_sum  Sr2Ge2
_cell_volume  115.32412139387932
_cell_formula_units_Z  2
loop_
  _symmetry_equiv_pos_site_id
 _symmetry_equiv_pos_as_xyz
 1  'x, y, z'
loop_
 _atom_site_type_symbol
 _atom_site_label
 _atom_site_symmetry_multiplicity
 _atom_site_fract_x
 _atom_site_fract_y
 _atom_site_fract_z
 _atom_site_fract_occupancy
 Ge  Ge1  1  0.75000  0.42759  0.85518  1
 Ge  Ge2  1  0.25000  0.57241  0.14482  1
 Sr  Sr1  1  0.75000  0.13692  0.27384  1
 Sr  Sr2  1  0.25000  0.86308  0.72616  1
