data_image0
_chemical_formula_structural       Ag3Mg3Sm3
_chemical_formula_sum              "Ag3 Mg3 Sm3"
_cell_length_a       7.74054
_cell_length_b       7.74054
_cell_length_c       4.23586
_cell_angle_alpha    90
_cell_angle_beta     90
_cell_angle_gamma    120

_space_group_name_H-M_alt    "P 1"
_space_group_IT_number       1

loop_
  _space_group_symop_operation_xyz
  'x, y, z'

loop_
  _atom_site_type_symbol
  _atom_site_label
  _atom_site_symmetry_multiplicity
  _atom_site_fract_x
  _atom_site_fract_y
  _atom_site_fract_z
  _atom_site_occupancy
  Ag  Ag1       1.0  0.66700  0.33300  0.00000  1.0000
  Ag  Ag2       1.0  0.33300  0.66700  0.00000  1.0000
  Ag  Ag3       1.0  0.00000  0.00000  0.50000  1.0000
  Mg  Mg1       1.0  0.24300  0.00000  0.00000  1.0000
  Mg  Mg2       1.0  0.00000  0.24300  0.00000  1.0000
  Mg  Mg3       1.0  0.75700  0.75700  0.00000  1.0000
  Sm  Sm1       1.0  0.58500  0.00001  0.50000  1.0000
  Sm  Sm2       1.0  0.41500  0.41500  0.50000  1.0000
  Sm  Sm3       1.0  0.00001  0.58500  0.50000  1.0000
