data_image0
_chemical_formula_structural       H6Li2Pt
_chemical_formula_sum              "H6 Li2 Pt1"
_cell_length_a       4.59715
_cell_length_b       4.59715
_cell_length_c       4.59715
_cell_angle_alpha    120
_cell_angle_beta     90
_cell_angle_gamma    120

_space_group_name_H-M_alt    "P 1"
_space_group_IT_number       1

loop_
  _space_group_symop_operation_xyz
  'x, y, z'

loop_
  _atom_site_type_symbol
  _atom_site_label
  _atom_site_symmetry_multiplicity
  _atom_site_fract_x
  _atom_site_fract_y
  _atom_site_fract_z
  _atom_site_occupancy
  H   H1        1.0  0.74700  0.00000  0.25300  1.0000
  H   H2        1.0  0.25300  0.00000  0.25300  1.0000
  H   H3        1.0  0.25300  0.50700  0.25300  1.0000
  H   H4        1.0  0.74700  0.00000  0.74700  1.0000
  H   H5        1.0  0.25300  0.00000  0.74700  1.0000
  H   H6        1.0  0.74700  0.49300  0.74700  1.0000
  Li  Li1       1.0  0.75000  0.50000  0.25000  1.0000
  Li  Li2       1.0  0.25000  0.50000  0.75000  1.0000
  Pt  Pt1       1.0  0.00000  0.00000  0.00000  1.0000
