CIF file written using JARVIS-Tools package.
data_NdSnPt
_symmetry_space_group_name_H-M  'P-62m'
_cell_length_a       7.65847
_cell_length_b       7.65847
_cell_length_c       4.12778
_cell_angle_alpha    90
_cell_angle_beta     90
_cell_angle_gamma    120

_symmetry_Int_Tables_number  189
_chemical_formula_structural  NdSnPt
_chemical_formula_sum  Nd3Sn3Pt3
_cell_volume  209.66786473710206
_cell_formula_units_Z  3
loop_
  _symmetry_equiv_pos_site_id
 _symmetry_equiv_pos_as_xyz
 1  'x, y, z'
loop_
 _atom_site_type_symbol
 _atom_site_label
 _atom_site_symmetry_multiplicity
 _atom_site_fract_x
 _atom_site_fract_y
 _atom_site_fract_z
 _atom_site_fract_occupancy
 Nd  Nd1  1  0.40824  0.40824  0.00000  1
 Nd  Nd2  1  -0.00000  0.59176  0.00000  1
 Nd  Nd3  1  0.59176  -0.00000  0.00000  1
 Pt  Pt1  1  0.00000  0.00000  0.00000  1
 Pt  Pt2  1  0.33333  0.66667  0.50000  1
 Pt  Pt3  1  0.66667  0.33333  0.50000  1
 Sn  Sn1  1  0.25457  -0.00000  0.50000  1
 Sn  Sn2  1  0.74543  0.74543  0.50000  1
 Sn  Sn3  1  -0.00000  0.25457  0.50000  1
