CIF file written using JARVIS-Tools package.
data_Li3CrO4
_symmetry_space_group_name_H-M  'Cmmm'
_cell_length_a       4.88946
_cell_length_b       2.8816
_cell_length_c       4.88956
_cell_angle_alpha    90
_cell_angle_beta     107.382
_cell_angle_gamma    90

_symmetry_Int_Tables_number  65
_chemical_formula_structural  Li3CrO4
_chemical_formula_sum  Li3CrO4
_cell_volume  65.74506840418735
_cell_formula_units_Z  1
loop_
  _symmetry_equiv_pos_site_id
 _symmetry_equiv_pos_as_xyz
 1  'x, y, z'
loop_
 _atom_site_type_symbol
 _atom_site_label
 _atom_site_symmetry_multiplicity
 _atom_site_fract_x
 _atom_site_fract_y
 _atom_site_fract_z
 _atom_site_fract_occupancy
 Cr  Cr1  1  0.50000  0.50000  0.00000  1
 Li  Li1  1  0.00000  0.00000  0.00000  1
 Li  Li2  1  -0.00000  0.50000  0.50000  1
 Li  Li3  1  0.50000  0.00000  0.50000  1
 O  O1  1  0.72852  0.00000  0.22851  1
 O  O2  1  0.72515  0.50000  0.77484  1
 O  O3  1  0.27148  0.00000  0.77149  1
 O  O4  1  0.27485  0.50000  0.22516  1
