CIF file written using JARVIS-Tools package.
data_Rb2Hg7
_symmetry_space_group_name_H-M  'P-3m1'
_cell_length_a       7.17063
_cell_length_b       7.17063
_cell_length_c       6.53301
_cell_angle_alpha    90
_cell_angle_beta     90
_cell_angle_gamma    120

_symmetry_Int_Tables_number  164
_chemical_formula_structural  Rb2Hg7
_chemical_formula_sum  Rb2Hg7
_cell_volume  290.9105572756702
_cell_formula_units_Z  1
loop_
  _symmetry_equiv_pos_site_id
 _symmetry_equiv_pos_as_xyz
 1  'x, y, z'
loop_
 _atom_site_type_symbol
 _atom_site_label
 _atom_site_symmetry_multiplicity
 _atom_site_fract_x
 _atom_site_fract_y
 _atom_site_fract_z
 _atom_site_fract_occupancy
 Hg  Hg1  1  0.18127  0.36254  0.33211  1
 Hg  Hg2  1  0.63746  0.81873  0.33211  1
 Hg  Hg3  1  0.18127  0.81873  0.33211  1
 Hg  Hg4  1  0.81873  0.63746  0.66789  1
 Hg  Hg5  1  0.81873  0.18127  0.66789  1
 Hg  Hg6  1  0.36254  0.18127  0.66789  1
 Hg  Hg7  1  0.00000  0.00000  0.00000  1
 Rb  Rb1  1  0.33333  0.66667  0.83801  1
 Rb  Rb2  1  0.66667  0.33333  0.16199  1
