CIF file written using JARVIS-Tools package.
data_ThCoSn
_symmetry_space_group_name_H-M  'P-62m'
_cell_length_a       7.38903
_cell_length_b       7.38903
_cell_length_c       4.06366
_cell_angle_alpha    90
_cell_angle_beta     90
_cell_angle_gamma    120

_symmetry_Int_Tables_number  189
_chemical_formula_structural  ThCoSn
_chemical_formula_sum  Th3Co3Sn3
_cell_volume  192.1428188686643
_cell_formula_units_Z  3
loop_
  _symmetry_equiv_pos_site_id
 _symmetry_equiv_pos_as_xyz
 1  'x, y, z'
loop_
 _atom_site_type_symbol
 _atom_site_label
 _atom_site_symmetry_multiplicity
 _atom_site_fract_x
 _atom_site_fract_y
 _atom_site_fract_z
 _atom_site_fract_occupancy
 Co  Co1  1  0.33333  0.66667  0.00000  1
 Co  Co2  1  0.00000  0.00000  0.50000  1
 Co  Co3  1  0.66667  0.33333  0.00000  1
 Sn  Sn1  1  0.75029  0.75029  0.00000  1
 Sn  Sn2  1  -0.00000  0.24971  0.00000  1
 Sn  Sn3  1  0.24971  -0.00000  0.00000  1
 Th  Th1  1  -0.00000  0.58795  0.50000  1
 Th  Th2  1  0.41205  0.41205  0.50000  1
 Th  Th3  1  0.58795  -0.00000  0.50000  1
