CIF file written using JARVIS-Tools package.
data_KAuSe5
_symmetry_space_group_name_H-M  'Ibam'
_cell_length_a       8.58887
_cell_length_b       10.9547
_cell_length_c       10.9547
_cell_angle_alpha    62.5166
_cell_angle_beta     66.9201
_cell_angle_gamma    66.92

_symmetry_Int_Tables_number  72
_chemical_formula_structural  KAuSe5
_chemical_formula_sum  K4Au4Se20
_cell_volume  812.5789057325385
_cell_formula_units_Z  4
loop_
  _symmetry_equiv_pos_site_id
 _symmetry_equiv_pos_as_xyz
 1  'x, y, z'
loop_
 _atom_site_type_symbol
 _atom_site_label
 _atom_site_symmetry_multiplicity
 _atom_site_fract_x
 _atom_site_fract_y
 _atom_site_fract_z
 _atom_site_fract_occupancy
 Au  Au1  1  0.25000  0.88108  0.61892  1
 Au  Au2  1  0.25000  0.61892  0.88108  1
 Au  Au3  1  0.75000  0.38108  0.11892  1
 Au  Au4  1  0.75000  0.11892  0.38108  1
 K  K1  1  0.50000  0.50000  0.50000  1
 K  K2  1  0.00000  0.00000  0.00000  1
 K  K3  1  0.75000  0.75000  0.75000  1
 K  K4  1  0.25000  0.25000  0.25000  1
 Se  Se1  1  0.15743  0.28184  0.94619  1
 Se  Se2  1  0.88546  0.21816  0.55381  1
 Se  Se3  1  0.06050  0.02260  0.27871  1
 Se  Se4  1  0.36182  0.72129  0.97740  1
 Se  Se5  1  0.13818  0.52260  0.77871  1
 Se  Se6  1  0.93950  0.97740  0.72129  1
 Se  Se7  1  0.38546  0.05381  0.71816  1
 Se  Se8  1  0.61454  0.94619  0.28184  1
 Se  Se9  1  0.65743  0.44619  0.78184  1
 Se  Se10  1  0.56145  0.85242  0.14758  1
 Se  Se11  1  0.84257  0.71816  0.05381  1
 Se  Se12  1  0.06145  0.64758  0.35242  1
 Se  Se13  1  0.86182  0.47740  0.22129  1
 Se  Se14  1  0.43855  0.14758  0.85242  1
 Se  Se15  1  0.93855  0.35242  0.64758  1
 Se  Se16  1  0.63818  0.27871  0.02260  1
 Se  Se17  1  0.43950  0.22129  0.47740  1
 Se  Se18  1  0.56050  0.77871  0.52260  1
 Se  Se19  1  0.11454  0.78184  0.44619  1
 Se  Se20  1  0.34257  0.55381  0.21816  1
