CIF file written using JARVIS-Tools package.
data_YbMnGe
_symmetry_space_group_name_H-M  'P-62m'
_cell_length_a       6.75077
_cell_length_b       6.75077
_cell_length_c       4.34791
_cell_angle_alpha    90
_cell_angle_beta     90
_cell_angle_gamma    120

_symmetry_Int_Tables_number  189
_chemical_formula_structural  YbMnGe
_chemical_formula_sum  Yb3Mn3Ge3
_cell_volume  171.60031897673414
_cell_formula_units_Z  3
loop_
  _symmetry_equiv_pos_site_id
 _symmetry_equiv_pos_as_xyz
 1  'x, y, z'
loop_
 _atom_site_type_symbol
 _atom_site_label
 _atom_site_symmetry_multiplicity
 _atom_site_fract_x
 _atom_site_fract_y
 _atom_site_fract_z
 _atom_site_fract_occupancy
 Ge  Ge1  1  0.33333  0.66667  0.50000  1
 Ge  Ge2  1  0.00000  0.00000  0.00000  1
 Ge  Ge3  1  0.66667  0.33333  0.50000  1
 Mn  Mn1  1  -0.00000  0.22907  0.50000  1
 Mn  Mn2  1  0.22907  -0.00000  0.50000  1
 Mn  Mn3  1  0.77093  0.77093  0.50000  1
 Yb  Yb1  1  0.43476  0.43476  0.00000  1
 Yb  Yb2  1  -0.00000  0.56524  0.00000  1
 Yb  Yb3  1  0.56524  -0.00000  0.00000  1
