CIF file written using JARVIS-Tools package.
data_InSb
_symmetry_space_group_name_H-M  'Pmm2'
_cell_length_a       3.09264
_cell_length_b       3.09062
_cell_length_c       6.24807
_cell_angle_alpha    90
_cell_angle_beta     90
_cell_angle_gamma    90

_symmetry_Int_Tables_number  25
_chemical_formula_structural  InSb
_chemical_formula_sum  InSb
_cell_volume  59.72024722356729
_cell_formula_units_Z  1
loop_
  _symmetry_equiv_pos_site_id
 _symmetry_equiv_pos_as_xyz
 1  'x, y, z'
loop_
 _atom_site_type_symbol
 _atom_site_label
 _atom_site_symmetry_multiplicity
 _atom_site_fract_x
 _atom_site_fract_y
 _atom_site_fract_z
 _atom_site_fract_occupancy
 In  In1  1  0.00000  -0.12205  0.00000  1
 Sb  Sb1  1  0.00000  0.87205  0.50000  1
