CIF file written using JARVIS-Tools package.
data_YAl3
_symmetry_space_group_name_H-M  'P6_3/mmc'
_cell_length_a       8.07907
_cell_length_b       8.07907
_cell_length_c       4.21723
_cell_angle_alpha    90
_cell_angle_beta     90
_cell_angle_gamma    120

_symmetry_Int_Tables_number  194
_chemical_formula_structural  YAl3
_chemical_formula_sum  Y2Al6
_cell_volume  238.38583016471026
_cell_formula_units_Z  2
loop_
  _symmetry_equiv_pos_site_id
 _symmetry_equiv_pos_as_xyz
 1  'x, y, z'
loop_
 _atom_site_type_symbol
 _atom_site_label
 _atom_site_symmetry_multiplicity
 _atom_site_fract_x
 _atom_site_fract_y
 _atom_site_fract_z
 _atom_site_fract_occupancy
 Al  Al1  1  0.12232  0.24464  0.25000  1
 Al  Al2  1  0.87768  0.12232  0.75000  1
 Al  Al3  1  0.24464  0.12232  0.75000  1
 Al  Al4  1  0.75536  0.87768  0.25000  1
 Al  Al5  1  0.12232  0.87768  0.25000  1
 Al  Al6  1  0.87768  0.75536  0.75000  1
 Y  Y1  1  0.33333  0.66667  0.25000  1
 Y  Y2  1  0.66667  0.33333  0.75000  1
