CIF file written using JARVIS-Tools package.
data_TmGe2Rh2
_symmetry_space_group_name_H-M  'I4/mmm'
_cell_length_a       4.12219
_cell_length_b       4.1222
_cell_length_c       5.90514
_cell_angle_alpha    110.428
_cell_angle_beta     110.428
_cell_angle_gamma    90

_symmetry_Int_Tables_number  139
_chemical_formula_structural  TmGe2Rh2
_chemical_formula_sum  TmGe2Rh2
_cell_volume  87.2668467840978
_cell_formula_units_Z  1
loop_
  _symmetry_equiv_pos_site_id
 _symmetry_equiv_pos_as_xyz
 1  'x, y, z'
loop_
 _atom_site_type_symbol
 _atom_site_label
 _atom_site_symmetry_multiplicity
 _atom_site_fract_x
 _atom_site_fract_y
 _atom_site_fract_z
 _atom_site_fract_occupancy
 Ge  Ge1  1  0.37959  0.37959  0.75919  1
 Ge  Ge2  1  0.62041  0.62041  0.24081  1
 Rh  Rh1  1  0.25000  0.75000  0.50000  1
 Rh  Rh2  1  0.75000  0.25000  0.50000  1
 Tm  Tm1  1  0.00000  0.00000  0.00000  1
