CIF file written using JARVIS-Tools package.
data_YAlNi
_symmetry_space_group_name_H-M  'P-62m'
_cell_length_a       7.02416
_cell_length_b       7.02416
_cell_length_c       3.84477
_cell_angle_alpha    90
_cell_angle_beta     90
_cell_angle_gamma    120

_symmetry_Int_Tables_number  189
_chemical_formula_structural  YAlNi
_chemical_formula_sum  Y3Al3Ni3
_cell_volume  164.28213634378153
_cell_formula_units_Z  3
loop_
  _symmetry_equiv_pos_site_id
 _symmetry_equiv_pos_as_xyz
 1  'x, y, z'
loop_
 _atom_site_type_symbol
 _atom_site_label
 _atom_site_symmetry_multiplicity
 _atom_site_fract_x
 _atom_site_fract_y
 _atom_site_fract_z
 _atom_site_fract_occupancy
 Al  Al1  1  0.00000  0.76391  0.50000  1
 Al  Al2  1  0.23609  0.23609  0.50000  1
 Al  Al3  1  0.76391  0.00000  0.50000  1
 Ni  Ni1  1  0.66667  0.33333  0.50000  1
 Ni  Ni2  1  0.00000  0.00000  0.00000  1
 Ni  Ni3  1  0.33333  0.66667  0.50000  1
 Y  Y1  1  0.41668  0.00000  0.00000  1
 Y  Y2  1  0.00000  0.41668  0.00000  1
 Y  Y3  1  0.58332  0.58332  0.00000  1
