CIF file written using JARVIS-Tools package.
data_Sc2GaC
_symmetry_space_group_name_H-M  'P6_3/mmc'
_cell_length_a       3.30509
_cell_length_b       3.30509
_cell_length_c       14.5391
_cell_angle_alpha    90
_cell_angle_beta     90
_cell_angle_gamma    120

_symmetry_Int_Tables_number  194
_chemical_formula_structural  Sc2GaC
_chemical_formula_sum  Sc4Ga2C2
_cell_volume  137.54154086194026
_cell_formula_units_Z  2
loop_
  _symmetry_equiv_pos_site_id
 _symmetry_equiv_pos_as_xyz
 1  'x, y, z'
loop_
 _atom_site_type_symbol
 _atom_site_label
 _atom_site_symmetry_multiplicity
 _atom_site_fract_x
 _atom_site_fract_y
 _atom_site_fract_z
 _atom_site_fract_occupancy
 C  C1  1  0.00000  0.00000  0.50000  1
 C  C2  1  0.00000  0.00000  0.00000  1
 Ga  Ga1  1  0.66667  0.33333  0.75000  1
 Ga  Ga2  1  0.33333  0.66667  0.25000  1
 Sc  Sc1  1  0.66667  0.33333  0.41467  1
 Sc  Sc2  1  0.33333  0.66667  0.58533  1
 Sc  Sc3  1  0.33333  0.66667  0.91467  1
 Sc  Sc4  1  0.66667  0.33333  0.08533  1
