CIF file written using JARVIS-Tools package.
data_SrLiAlSb2
_symmetry_space_group_name_H-M  'P3m1'
_cell_length_a       4.57549
_cell_length_b       4.57549
_cell_length_c       7.81121
_cell_angle_alpha    90
_cell_angle_beta     90
_cell_angle_gamma    120

_symmetry_Int_Tables_number  156
_chemical_formula_structural  SrLiAlSb2
_chemical_formula_sum  SrLiAlSb2
_cell_volume  141.61993160243145
_cell_formula_units_Z  1
loop_
  _symmetry_equiv_pos_site_id
 _symmetry_equiv_pos_as_xyz
 1  'x, y, z'
loop_
 _atom_site_type_symbol
 _atom_site_label
 _atom_site_symmetry_multiplicity
 _atom_site_fract_x
 _atom_site_fract_y
 _atom_site_fract_z
 _atom_site_fract_occupancy
 Al  Al1  1  0.00000  0.00000  0.60323  1
 Li  Li1  1  0.66667  0.33333  0.36525  1
 Sb  Sb1  1  0.00000  0.00000  0.26625  1
 Sb  Sb2  1  0.66667  0.33333  0.73912  1
 Sr  Sr1  1  0.33333  0.66667  0.02616  1
