CIF file written using JARVIS-Tools package.
data_PuRh2
_symmetry_space_group_name_H-M  'Fd-3m'
_cell_length_a       5.22138
_cell_length_b       5.22138
_cell_length_c       5.22138
_cell_angle_alpha    60
_cell_angle_beta     60
_cell_angle_gamma    60

_symmetry_Int_Tables_number  227
_chemical_formula_structural  PuRh2
_chemical_formula_sum  Pu2Rh4
_cell_volume  100.65635745244676
_cell_formula_units_Z  2
loop_
  _symmetry_equiv_pos_site_id
 _symmetry_equiv_pos_as_xyz
 1  'x, y, z'
loop_
 _atom_site_type_symbol
 _atom_site_label
 _atom_site_symmetry_multiplicity
 _atom_site_fract_x
 _atom_site_fract_y
 _atom_site_fract_z
 _atom_site_fract_occupancy
 Pu  Pu1  1  0.12500  0.12500  0.12500  1
 Pu  Pu2  1  0.87500  0.87500  0.87500  1
 Rh  Rh1  1  0.50000  0.00000  0.50000  1
 Rh  Rh2  1  -0.00000  0.50000  0.50000  1
 Rh  Rh3  1  0.50000  0.50000  0.50000  1
 Rh  Rh4  1  0.50000  0.50000  0.00000  1
