CIF file written using JARVIS-Tools package.
data_N
_symmetry_space_group_name_H-M  'Pa-3'
_cell_length_a       5.47071
_cell_length_b       5.47071
_cell_length_c       5.47071
_cell_angle_alpha    90
_cell_angle_beta     90
_cell_angle_gamma    90

_symmetry_Int_Tables_number  205
_chemical_formula_structural  N
_chemical_formula_sum  N8
_cell_volume  163.7312140304402
_cell_formula_units_Z  8
loop_
  _symmetry_equiv_pos_site_id
 _symmetry_equiv_pos_as_xyz
 1  'x, y, z'
loop_
 _atom_site_type_symbol
 _atom_site_label
 _atom_site_symmetry_multiplicity
 _atom_site_fract_x
 _atom_site_fract_y
 _atom_site_fract_z
 _atom_site_fract_occupancy
 N  N1  1  0.05855  0.05855  0.05855  1
 N  N2  1  0.44145  0.94145  0.55855  1
 N  N3  1  0.55855  0.44145  0.94145  1
 N  N4  1  0.94145  0.55855  0.44145  1
 N  N5  1  0.94150  0.94150  0.94150  1
 N  N6  1  0.55850  0.05850  0.44150  1
 N  N7  1  0.44150  0.55850  0.05850  1
 N  N8  1  0.05850  0.44150  0.55850  1
