CIF file written using JARVIS-Tools package.
data_SmY3
_symmetry_space_group_name_H-M  'P6_3/mmc'
_cell_length_a       7.24563
_cell_length_b       7.24563
_cell_length_c       5.68259
_cell_angle_alpha    90
_cell_angle_beta     90
_cell_angle_gamma    120

_symmetry_Int_Tables_number  194
_chemical_formula_structural  SmY3
_chemical_formula_sum  Sm2Y6
_cell_volume  258.3623396864382
_cell_formula_units_Z  2
loop_
  _symmetry_equiv_pos_site_id
 _symmetry_equiv_pos_as_xyz
 1  'x, y, z'
loop_
 _atom_site_type_symbol
 _atom_site_label
 _atom_site_symmetry_multiplicity
 _atom_site_fract_x
 _atom_site_fract_y
 _atom_site_fract_z
 _atom_site_fract_occupancy
 Sm  Sm1  1  0.33333  0.66667  0.75000  1
 Sm  Sm2  1  0.66667  0.33333  0.25000  1
 Y  Y1  1  0.16662  0.33324  0.25000  1
 Y  Y2  1  0.66676  0.83338  0.25000  1
 Y  Y3  1  0.16662  0.83338  0.25000  1
 Y  Y4  1  0.83338  0.66676  0.75000  1
 Y  Y5  1  0.33324  0.16662  0.75000  1
 Y  Y6  1  0.83338  0.16662  0.75000  1
