CIF file written using JARVIS-Tools package.
data_Ba2Mn3As2O2
_symmetry_space_group_name_H-M  'I4/mmm'
_cell_length_a       3.84915
_cell_length_b       3.84915
_cell_length_c       11.2368
_cell_angle_alpha    99.8619
_cell_angle_beta     99.8619
_cell_angle_gamma    90

_symmetry_Int_Tables_number  139
_chemical_formula_structural  Ba2Mn3As2O2
_chemical_formula_sum  Ba2Mn3As2O2
_cell_volume  161.52661468947827
_cell_formula_units_Z  1
loop_
  _symmetry_equiv_pos_site_id
 _symmetry_equiv_pos_as_xyz
 1  'x, y, z'
loop_
 _atom_site_type_symbol
 _atom_site_label
 _atom_site_symmetry_multiplicity
 _atom_site_fract_x
 _atom_site_fract_y
 _atom_site_fract_z
 _atom_site_fract_occupancy
 As  As1  1  0.18423  0.18423  0.36845  1
 As  As2  1  0.81577  0.81577  0.63155  1
 Ba  Ba1  1  0.59088  0.59088  0.18177  1
 Ba  Ba2  1  0.40912  0.40912  0.81823  1
 Mn  Mn1  1  0.00000  0.00000  0.00000  1
 Mn  Mn2  1  0.75000  0.25000  0.50000  1
 Mn  Mn3  1  0.25000  0.75000  0.50000  1
 O  O1  1  1.00000  0.50000  -0.00000  1
 O  O2  1  0.50000  -0.00000  0.00000  1
