CIF file written using JARVIS-Tools package.
data_CeGe2Ru2
_symmetry_space_group_name_H-M  'I4/mmm'
_cell_length_a       4.28019
_cell_length_b       4.28019
_cell_length_c       5.82595
_cell_angle_alpha    111.552
_cell_angle_beta     111.552
_cell_angle_gamma    89.9999

_symmetry_Int_Tables_number  139
_chemical_formula_structural  CeGe2Ru2
_chemical_formula_sum  CeGe2Ru2
_cell_volume  91.1993024019163
_cell_formula_units_Z  1
loop_
  _symmetry_equiv_pos_site_id
 _symmetry_equiv_pos_as_xyz
 1  'x, y, z'
loop_
 _atom_site_type_symbol
 _atom_site_label
 _atom_site_symmetry_multiplicity
 _atom_site_fract_x
 _atom_site_fract_y
 _atom_site_fract_z
 _atom_site_fract_occupancy
 Ce  Ce1  1  0.00000  0.00000  0.00000  1
 Ge  Ge1  1  0.63008  0.63008  0.26017  1
 Ge  Ge2  1  0.36992  0.36992  0.73983  1
 Ru  Ru1  1  0.75000  0.25000  0.50000  1
 Ru  Ru2  1  0.25000  0.75000  0.50000  1
