CIF file written using JARVIS-Tools package.
data_Nb3Ge
_symmetry_space_group_name_H-M  'Pm-3n'
_cell_length_a       5.18417
_cell_length_b       5.18417
_cell_length_c       5.18417
_cell_angle_alpha    90
_cell_angle_beta     90
_cell_angle_gamma    90

_symmetry_Int_Tables_number  223
_chemical_formula_structural  Nb3Ge
_chemical_formula_sum  Nb6Ge2
_cell_volume  139.32799283707928
_cell_formula_units_Z  2
loop_
  _symmetry_equiv_pos_site_id
 _symmetry_equiv_pos_as_xyz
 1  'x, y, z'
loop_
 _atom_site_type_symbol
 _atom_site_label
 _atom_site_symmetry_multiplicity
 _atom_site_fract_x
 _atom_site_fract_y
 _atom_site_fract_z
 _atom_site_fract_occupancy
 Ge  Ge1  1  0.00000  0.00000  0.00000  1
 Ge  Ge2  1  0.50000  0.50000  0.50000  1
 Nb  Nb1  1  0.25000  0.00000  0.50000  1
 Nb  Nb2  1  0.75000  0.00000  0.50000  1
 Nb  Nb3  1  0.00000  0.50000  0.25000  1
 Nb  Nb4  1  0.00000  0.50000  0.75000  1
 Nb  Nb5  1  0.50000  0.75000  0.00000  1
 Nb  Nb6  1  0.50000  0.25000  0.00000  1
