CIF file written using JARVIS-Tools package.
data_Ca2IN
_symmetry_space_group_name_H-M  'P6_3/mmc'
_cell_length_a       3.79802
_cell_length_b       3.79802
_cell_length_c       14.4709
_cell_angle_alpha    90
_cell_angle_beta     90
_cell_angle_gamma    120

_symmetry_Int_Tables_number  194
_chemical_formula_structural  Ca2IN
_chemical_formula_sum  Ca4I2N2
_cell_volume  180.776098308555
_cell_formula_units_Z  2
loop_
  _symmetry_equiv_pos_site_id
 _symmetry_equiv_pos_as_xyz
 1  'x, y, z'
loop_
 _atom_site_type_symbol
 _atom_site_label
 _atom_site_symmetry_multiplicity
 _atom_site_fract_x
 _atom_site_fract_y
 _atom_site_fract_z
 _atom_site_fract_occupancy
 Ca  Ca1  1  0.33333  0.66667  0.91728  1
 Ca  Ca2  1  0.33333  0.66667  0.58272  1
 Ca  Ca3  1  0.66667  0.33333  0.41728  1
 Ca  Ca4  1  0.66667  0.33333  0.08272  1
 I  I1  1  0.33333  0.66667  0.25000  1
 I  I2  1  0.66667  0.33333  0.75000  1
 N  N1  1  0.00000  0.00000  0.00000  1
 N  N2  1  0.00000  0.00000  0.50000  1
