CIF file written using JARVIS-Tools package.
data_Ba4NaP
_symmetry_space_group_name_H-M  'F-43m'
_cell_length_a       7.15304
_cell_length_b       7.15304
_cell_length_c       7.15304
_cell_angle_alpha    60
_cell_angle_beta     60
_cell_angle_gamma    60

_symmetry_Int_Tables_number  216
_chemical_formula_structural  Ba4NaP
_chemical_formula_sum  Ba4NaP
_cell_volume  258.79500414729836
_cell_formula_units_Z  1
loop_
  _symmetry_equiv_pos_site_id
 _symmetry_equiv_pos_as_xyz
 1  'x, y, z'
loop_
 _atom_site_type_symbol
 _atom_site_label
 _atom_site_symmetry_multiplicity
 _atom_site_fract_x
 _atom_site_fract_y
 _atom_site_fract_z
 _atom_site_fract_occupancy
 Ba  Ba1  1  0.11836  0.62721  0.62721  1
 Ba  Ba2  1  0.62721  0.62721  0.62721  1
 Ba  Ba3  1  0.62721  0.11836  0.62721  1
 Ba  Ba4  1  0.62721  0.62721  0.11836  1
 Na  Na1  1  0.25000  0.25000  0.25000  1
 P  P1  1  0.00000  0.00000  0.00000  1
