CIF file written using JARVIS-Tools package.
data_Mn3O4
_symmetry_space_group_name_H-M  'I4_1/amd'
_cell_length_a       5.82153
_cell_length_b       6.25232
_cell_length_c       5.82152
_cell_angle_alpha    62.2549
_cell_angle_beta     90
_cell_angle_gamma    62.2542

_symmetry_Int_Tables_number  141
_chemical_formula_structural  Mn3O4
_chemical_formula_sum  Mn6O8
_cell_volume  159.48826352573053
_cell_formula_units_Z  2
loop_
  _symmetry_equiv_pos_site_id
 _symmetry_equiv_pos_as_xyz
 1  'x, y, z'
loop_
 _atom_site_type_symbol
 _atom_site_label
 _atom_site_symmetry_multiplicity
 _atom_site_fract_x
 _atom_site_fract_y
 _atom_site_fract_z
 _atom_site_fract_occupancy
 Mn  Mn1  1  0.12500  0.25000  0.37499  1
 Mn  Mn2  1  0.87500  0.75000  0.62501  1
 Mn  Mn3  1  0.50000  0.50000  0.50000  1
 Mn  Mn4  1  0.00000  0.00000  0.00000  1
 Mn  Mn5  1  0.50000  -0.00000  0.00000  1
 Mn  Mn6  1  0.50000  0.50000  -0.00000  1
 O  O1  1  0.27106  0.51018  0.24491  1
 O  O2  1  0.25510  0.98979  0.22896  1
 O  O3  1  0.74492  0.01016  0.21877  1
 O  O4  1  0.74490  0.01021  0.77104  1
 O  O5  1  0.28124  0.48982  0.75509  1
 O  O6  1  0.72894  0.48982  0.75509  1
 O  O7  1  0.71876  0.51018  0.24491  1
 O  O8  1  0.25508  0.98984  0.78123  1
