CIF file written using JARVIS-Tools package.
data_Ba2MnN2
_symmetry_space_group_name_H-M  'I4/mmm'
_cell_length_a       4.11897
_cell_length_b       4.11869
_cell_length_c       7.14073
_cell_angle_alpha    106.762
_cell_angle_beta     106.763
_cell_angle_gamma    90

_symmetry_Int_Tables_number  139
_chemical_formula_structural  Ba2MnN2
_chemical_formula_sum  Ba2MnN2
_cell_volume  110.60666105361756
_cell_formula_units_Z  1
loop_
  _symmetry_equiv_pos_site_id
 _symmetry_equiv_pos_as_xyz
 1  'x, y, z'
loop_
 _atom_site_type_symbol
 _atom_site_label
 _atom_site_symmetry_multiplicity
 _atom_site_fract_x
 _atom_site_fract_y
 _atom_site_fract_z
 _atom_site_fract_occupancy
 Ba  Ba1  1  0.14227  0.14227  0.78454  1
 Ba  Ba2  1  0.85773  0.85773  0.21546  1
 Mn  Mn1  1  0.50000  0.50000  0.50000  1
 N  N1  1  0.63270  0.63270  0.76540  1
 N  N2  1  0.36730  0.36730  0.23460  1
