CIF file written using JARVIS-Tools package.
data_BaLaTiCuO6
_symmetry_space_group_name_H-M  'F-43m'
_cell_length_a       5.60039
_cell_length_b       5.60039
_cell_length_c       5.60039
_cell_angle_alpha    60
_cell_angle_beta     60
_cell_angle_gamma    60.0001

_symmetry_Int_Tables_number  216
_chemical_formula_structural  BaLaTiCuO6
_chemical_formula_sum  BaLaTiCuO6
_cell_volume  124.2048892914424
_cell_formula_units_Z  1
loop_
  _symmetry_equiv_pos_site_id
 _symmetry_equiv_pos_as_xyz
 1  'x, y, z'
loop_
 _atom_site_type_symbol
 _atom_site_label
 _atom_site_symmetry_multiplicity
 _atom_site_fract_x
 _atom_site_fract_y
 _atom_site_fract_z
 _atom_site_fract_occupancy
 Ba  Ba1  1  0.00000  0.00000  0.00000  1
 Cu  Cu1  1  0.75000  0.75000  0.75000  1
 La  La1  1  0.50000  0.50000  0.50000  1
 O  O1  1  0.00318  0.49682  0.49682  1
 O  O2  1  0.49682  0.00318  0.00318  1
 O  O3  1  0.00318  0.49682  0.00318  1
 O  O4  1  0.49682  0.00318  0.49682  1
 O  O5  1  0.49682  0.49682  0.00318  1
 O  O6  1  0.00318  0.00318  0.49682  1
 Ti  Ti1  1  0.25000  0.25000  0.25000  1
