CIF file written using JARVIS-Tools package.
data_DyMnO3
_symmetry_space_group_name_H-M  'Pnma'
_cell_length_a       5.27046
_cell_length_b       5.66115
_cell_length_c       7.5595
_cell_angle_alpha    90
_cell_angle_beta     90
_cell_angle_gamma    90

_symmetry_Int_Tables_number  62
_chemical_formula_structural  DyMnO3
_chemical_formula_sum  Dy4Mn4O2
_cell_volume  225.55172064899324
_cell_formula_units_Z  4
loop_
  _symmetry_equiv_pos_site_id
 _symmetry_equiv_pos_as_xyz
 1  'x, y, z'
loop_
 _atom_site_type_symbol
 _atom_site_label
 _atom_site_symmetry_multiplicity
 _atom_site_fract_x
 _atom_site_fract_y
 _atom_site_fract_z
 _atom_site_fract_occupancy
 Dy  Dy1  1  0.01932  0.92529  0.75000  1
 Dy  Dy2  1  0.51932  0.57471  0.25000  1
 Dy  Dy3  1  0.48068  0.42529  0.75000  1
 Dy  Dy4  1  0.98068  0.07471  0.25000  1
 Mn  Mn1  1  0.50000  0.00000  0.50000  1
 Mn  Mn2  1  0.00000  0.50000  0.50000  1
 Mn  Mn3  1  0.00000  0.50000  0.00000  1
 Mn  Mn4  1  0.50000  0.00000  0.00000  1
 O  O1  1  0.69598  0.30902  0.44521  1
 O  O2  1  0.89128  0.53481  0.75000  1
 O  O3  1  0.80402  0.80902  0.05479  1
 O  O4  1  0.30402  0.69098  0.94521  1
 O  O5  1  0.19598  0.19098  0.55479  1
 O  O6  1  0.10872  0.46519  0.25000  1
 O  O7  1  0.19598  0.19098  0.94521  1
 O  O8  1  0.69598  0.30902  0.05479  1
 O  O9  1  0.30402  0.69098  0.55479  1
 O  O10  1  0.60872  0.03481  0.75000  1
 O  O11  1  0.80402  0.80902  0.44521  1
 O  O12  1  0.39128  0.96519  0.25000  1
