CIF file written using JARVIS-Tools package.
data_HfTiCN
_symmetry_space_group_name_H-M  'R3m'
_cell_length_a       5.44176
_cell_length_b       5.44176
_cell_length_c       5.44176
_cell_angle_alpha    33.6932
_cell_angle_beta     33.6932
_cell_angle_gamma    33.6932

_symmetry_Int_Tables_number  160
_chemical_formula_structural  HfTiCN
_chemical_formula_sum  HfTiCN
_cell_volume  44.18184928184429
_cell_formula_units_Z  1
loop_
  _symmetry_equiv_pos_site_id
 _symmetry_equiv_pos_as_xyz
 1  'x, y, z'
loop_
 _atom_site_type_symbol
 _atom_site_label
 _atom_site_symmetry_multiplicity
 _atom_site_fract_x
 _atom_site_fract_y
 _atom_site_fract_z
 _atom_site_fract_occupancy
 C  C1  1  0.75400  0.75400  0.75400  1
 Hf  Hf1  1  0.00032  0.00032  0.00032  1
 N  N1  1  0.24725  0.24725  0.24725  1
 Ti  Ti1  1  0.49843  0.49843  0.49843  1
