CIF file written using JARVIS-Tools package.
data_SrGa4
_symmetry_space_group_name_H-M  'I4/mmm'
_cell_length_a       4.49778
_cell_length_b       4.49778
_cell_length_c       6.21347
_cell_angle_alpha    111.219
_cell_angle_beta     111.219
_cell_angle_gamma    90.0001

_symmetry_Int_Tables_number  139
_chemical_formula_structural  SrGa4
_chemical_formula_sum  SrGa4
_cell_volume  107.98398000447092
_cell_formula_units_Z  1
loop_
  _symmetry_equiv_pos_site_id
 _symmetry_equiv_pos_as_xyz
 1  'x, y, z'
loop_
 _atom_site_type_symbol
 _atom_site_label
 _atom_site_symmetry_multiplicity
 _atom_site_fract_x
 _atom_site_fract_y
 _atom_site_fract_z
 _atom_site_fract_occupancy
 Ga  Ga1  1  0.61831  0.61831  0.23663  1
 Ga  Ga2  1  0.25000  0.75000  0.50000  1
 Ga  Ga3  1  0.75000  0.25000  0.50000  1
 Ga  Ga4  1  0.38169  0.38169  0.76337  1
 Sr  Sr1  1  0.00000  0.00000  0.00000  1
