CIF file written using JARVIS-Tools package.
data_Ho3Mn3Ga2Ge
_symmetry_space_group_name_H-M  'P-6'
_cell_length_a       6.88975
_cell_length_b       6.88975
_cell_length_c       4.11315
_cell_angle_alpha    90
_cell_angle_beta     90
_cell_angle_gamma    120

_symmetry_Int_Tables_number  174
_chemical_formula_structural  Ho3Mn3Ga2Ge
_chemical_formula_sum  Ho3Mn3Ga2Ge
_cell_volume  169.08754125997666
_cell_formula_units_Z  1
loop_
  _symmetry_equiv_pos_site_id
 _symmetry_equiv_pos_as_xyz
 1  'x, y, z'
loop_
 _atom_site_type_symbol
 _atom_site_label
 _atom_site_symmetry_multiplicity
 _atom_site_fract_x
 _atom_site_fract_y
 _atom_site_fract_z
 _atom_site_fract_occupancy
 Ga  Ga1  1  0.33333  0.66667  0.00000  1
 Ga  Ga2  1  0.00000  0.00000  0.50000  1
 Ge  Ge1  1  0.66667  0.33333  0.00000  1
 Ho  Ho1  1  0.42075  0.41932  0.50000  1
 Ho  Ho2  1  0.58068  0.00143  0.50000  1
 Ho  Ho3  1  0.99857  0.57925  0.50000  1
 Mn  Mn1  1  0.77793  0.77343  0.00000  1
 Mn  Mn2  1  0.22657  0.00450  0.00000  1
 Mn  Mn3  1  0.99550  0.22207  0.00000  1
