CIF file written using JARVIS-Tools package.
data_K2PdBr3Cl
_symmetry_space_group_name_H-M  'Amm2'
_cell_length_a       7.28399
_cell_length_b       7.284
_cell_length_c       4.18806
_cell_angle_alpha    90
_cell_angle_beta     90
_cell_angle_gamma    93.5148

_symmetry_Int_Tables_number  38
_chemical_formula_structural  K2PdBr3Cl
_chemical_formula_sum  K2PdBr3Cl
_cell_volume  221.7860030100309
_cell_formula_units_Z  1
loop_
  _symmetry_equiv_pos_site_id
 _symmetry_equiv_pos_as_xyz
 1  'x, y, z'
loop_
 _atom_site_type_symbol
 _atom_site_label
 _atom_site_symmetry_multiplicity
 _atom_site_fract_x
 _atom_site_fract_y
 _atom_site_fract_z
 _atom_site_fract_occupancy
 Br  Br1  1  0.23018  0.76982  0.00000  1
 Br  Br2  1  0.24784  0.24999  0.00000  1
 Br  Br3  1  0.75001  0.75216  0.00000  1
 Cl  Cl1  1  0.77602  0.22398  0.00000  1
 K  K1  1  0.51003  0.01249  0.50000  1
 K  K2  1  0.98751  0.48997  0.50000  1
 Pd  Pd1  1  0.99841  0.00159  0.00000  1
