CIF file written using JARVIS-Tools package.
data_MgCu2O4
_symmetry_space_group_name_H-M  'Cmcm'
_cell_length_a       2.93079
_cell_length_b       5.03678
_cell_length_c       9.3091
_cell_angle_alpha    90
_cell_angle_beta     90
_cell_angle_gamma    106.914

_symmetry_Int_Tables_number  63
_chemical_formula_structural  MgCu2O4
_chemical_formula_sum  Mg2Cu4O8
_cell_volume  131.4741292903667
_cell_formula_units_Z  2
loop_
  _symmetry_equiv_pos_site_id
 _symmetry_equiv_pos_as_xyz
 1  'x, y, z'
loop_
 _atom_site_type_symbol
 _atom_site_label
 _atom_site_symmetry_multiplicity
 _atom_site_fract_x
 _atom_site_fract_y
 _atom_site_fract_z
 _atom_site_fract_occupancy
 Cu  Cu1  1  0.86702  0.73405  0.07076  1
 Cu  Cu2  1  0.13298  0.26595  0.92924  1
 Cu  Cu3  1  0.86702  0.73405  0.42924  1
 Cu  Cu4  1  0.13298  0.26595  0.57076  1
 Mg  Mg1  1  0.39262  0.78523  0.75000  1
 Mg  Mg2  1  0.60738  0.21477  0.25000  1
 O  O1  1  0.21934  0.43868  0.38559  1
 O  O2  1  0.78066  0.56132  0.61441  1
 O  O3  1  0.78066  0.56132  0.88559  1
 O  O4  1  0.21934  0.43868  0.11441  1
 O  O5  1  0.95852  0.91705  0.25000  1
 O  O6  1  0.04148  0.08295  0.75000  1
 O  O7  1  0.50000  0.00000  0.00000  1
 O  O8  1  0.50000  0.00000  0.50000  1
