CIF file written using JARVIS-Tools package.
data_CoF2
_symmetry_space_group_name_H-M  'P4_2/mnm'
_cell_length_a       4.66402
_cell_length_b       4.66402
_cell_length_c       3.202
_cell_angle_alpha    90
_cell_angle_beta     90
_cell_angle_gamma    90

_symmetry_Int_Tables_number  136
_chemical_formula_structural  CoF2
_chemical_formula_sum  Co2F4
_cell_volume  69.65329902045876
_cell_formula_units_Z  2
loop_
  _symmetry_equiv_pos_site_id
 _symmetry_equiv_pos_as_xyz
 1  'x, y, z'
loop_
 _atom_site_type_symbol
 _atom_site_label
 _atom_site_symmetry_multiplicity
 _atom_site_fract_x
 _atom_site_fract_y
 _atom_site_fract_z
 _atom_site_fract_occupancy
 Co  Co1  1  0.00000  0.00000  0.00000  1
 Co  Co2  1  0.50000  0.50000  0.50000  1
 F  F1  1  0.30235  0.30235  0.00000  1
 F  F2  1  0.69765  0.69765  0.00000  1
 F  F3  1  0.80235  0.19765  0.50000  1
 F  F4  1  0.19765  0.80235  0.50000  1
