CIF file written using JARVIS-Tools package.
data_GeBr2
_symmetry_space_group_name_H-M  'P4_2/mnm'
_cell_length_a       6.69331
_cell_length_b       6.69331
_cell_length_c       4.13748
_cell_angle_alpha    90
_cell_angle_beta     90
_cell_angle_gamma    90

_symmetry_Int_Tables_number  136
_chemical_formula_structural  GeBr2
_chemical_formula_sum  Ge2Br4
_cell_volume  185.36067478270743
_cell_formula_units_Z  2
loop_
  _symmetry_equiv_pos_site_id
 _symmetry_equiv_pos_as_xyz
 1  'x, y, z'
loop_
 _atom_site_type_symbol
 _atom_site_label
 _atom_site_symmetry_multiplicity
 _atom_site_fract_x
 _atom_site_fract_y
 _atom_site_fract_z
 _atom_site_fract_occupancy
 Br  Br1  1  0.29758  0.29758  0.00000  1
 Br  Br2  1  0.70242  0.70242  0.00000  1
 Br  Br3  1  0.20242  0.79758  0.50000  1
 Br  Br4  1  0.79758  0.20242  0.50000  1
 Ge  Ge1  1  0.00000  0.00000  0.00000  1
 Ge  Ge2  1  0.50000  0.50000  0.50000  1
