CIF file written using JARVIS-Tools package.
data_UCuAs2
_symmetry_space_group_name_H-M  'P4/nmm'
_cell_length_a       3.97242
_cell_length_b       3.97242
_cell_length_c       9.59613
_cell_angle_alpha    90
_cell_angle_beta     90
_cell_angle_gamma    90

_symmetry_Int_Tables_number  129
_chemical_formula_structural  UCuAs2
_chemical_formula_sum  U2Cu2As4
_cell_volume  151.42784113628102
_cell_formula_units_Z  2
loop_
  _symmetry_equiv_pos_site_id
 _symmetry_equiv_pos_as_xyz
 1  'x, y, z'
loop_
 _atom_site_type_symbol
 _atom_site_label
 _atom_site_symmetry_multiplicity
 _atom_site_fract_x
 _atom_site_fract_y
 _atom_site_fract_z
 _atom_site_fract_occupancy
 As  As1  1  0.50000  0.00000  0.33275  1
 As  As2  1  0.00000  0.50000  0.66725  1
 As  As3  1  0.00000  0.00000  0.00000  1
 As  As4  1  0.50000  0.50000  0.00000  1
 Cu  Cu1  1  0.00000  0.00000  0.50000  1
 Cu  Cu2  1  0.50000  0.50000  0.50000  1
 U  U1  1  0.50000  0.00000  0.76677  1
 U  U2  1  0.00000  0.50000  0.23323  1
