data_image0
_chemical_formula_structural       Cu2K2S4Th
_chemical_formula_sum              "Cu2 K2 S4 Th1"
_cell_length_a       4.02355
_cell_length_b       7.53865
_cell_length_c       7.594
_cell_angle_alpha    109.226
_cell_angle_beta     90
_cell_angle_gamma    105.478

_space_group_name_H-M_alt    "P 1"
_space_group_IT_number       1

loop_
  _space_group_symop_operation_xyz
  'x, y, z'

loop_
  _atom_site_type_symbol
  _atom_site_label
  _atom_site_symmetry_multiplicity
  _atom_site_fract_x
  _atom_site_fract_y
  _atom_site_fract_z
  _atom_site_occupancy
  Cu  Cu1       1.0  0.31900  0.63800  0.01150  1.0000
  Cu  Cu2       1.0  0.68100  0.36200  0.98800  1.0000
  K   K1        1.0  0.86200  0.72400  0.43500  1.0000
  K   K2        1.0  0.13800  0.27600  0.56500  1.0000
  S   S1        1.0  0.20200  0.40500  0.17600  1.0000
  S   S2        1.0  0.47800  0.95600  0.23900  1.0000
  S   S3        1.0  0.52200  0.04360  0.76100  1.0000
  S   S4        1.0  0.79800  0.59500  0.82400  1.0000
  Th  Th1       1.0  0.00000  0.00000  0.00000  1.0000
