data_image0
_chemical_formula_structural       Ba2F2Fe2OSe2
_chemical_formula_sum              "Ba2 F2 Fe2 O1 Se2"
_cell_length_a       10.1862
_cell_length_b       4.21015
_cell_length_c       4.21015
_cell_angle_alpha    90
_cell_angle_beta     101.927
_cell_angle_gamma    101.927

_space_group_name_H-M_alt    "P 1"
_space_group_IT_number       1

loop_
  _space_group_symop_operation_xyz
  'x, y, z'

loop_
  _atom_site_type_symbol
  _atom_site_label
  _atom_site_symmetry_multiplicity
  _atom_site_fract_x
  _atom_site_fract_y
  _atom_site_fract_z
  _atom_site_occupancy
  Ba  Ba1       1.0  0.66200  0.33100  0.33100  1.0000
  Ba  Ba2       1.0  0.33800  0.66900  0.66900  1.0000
  F   F1        1.0  0.50000  0.75000  0.25000  1.0000
  F   F2        1.0  0.50000  0.25000  0.75000  1.0000
  Fe  Fe1       1.0  0.00000  0.50000  0.00000  1.0000
  Fe  Fe2       1.0  0.00000  0.00000  0.50000  1.0000
  O   O1        1.0  0.00000  0.50000  0.50000  1.0000
  Se  Se1       1.0  0.18100  0.09060  0.09060  1.0000
  Se  Se2       1.0  0.81900  0.90900  0.90900  1.0000
