data_image0
_chemical_formula_structural       Fe12N4W12
_chemical_formula_sum              "Fe12 N4 W12"
_cell_length_a       7.7986
_cell_length_b       7.7986
_cell_length_c       7.7986
_cell_angle_alpha    60
_cell_angle_beta     60
_cell_angle_gamma    60

_space_group_name_H-M_alt    "P 1"
_space_group_IT_number       1

loop_
  _space_group_symop_operation_xyz
  'x, y, z'

loop_
  _atom_site_type_symbol
  _atom_site_label
  _atom_site_symmetry_multiplicity
  _atom_site_fract_x
  _atom_site_fract_y
  _atom_site_fract_z
  _atom_site_occupancy
  Fe  Fe1       1.0  0.62500  0.62500  0.62500  1.0000
  Fe  Fe2       1.0  0.62500  0.62500  0.12500  1.0000
  Fe  Fe3       1.0  0.12500  0.62500  0.62500  1.0000
  Fe  Fe4       1.0  0.62500  0.12500  0.62500  1.0000
  Fe  Fe5       1.0  0.42200  0.42200  0.42200  1.0000
  Fe  Fe6       1.0  0.42200  0.42200  0.73500  1.0000
  Fe  Fe7       1.0  0.73500  0.42200  0.42200  1.0000
  Fe  Fe8       1.0  0.42200  0.73500  0.42200  1.0000
  Fe  Fe9       1.0  0.82800  0.82800  0.82800  1.0000
  Fe  Fe10      1.0  0.82800  0.82800  0.51500  1.0000
  Fe  Fe11      1.0  0.82800  0.51500  0.82800  1.0000
  Fe  Fe12      1.0  0.51500  0.82800  0.82800  1.0000
  N   N1        1.0  0.12500  0.12500  0.12500  1.0000
  N   N2        1.0  0.12500  0.12500  0.62500  1.0000
  N   N3        1.0  0.62500  0.12500  0.12500  1.0000
  N   N4        1.0  0.12500  0.62500  0.12500  1.0000
  W   W1        1.0  0.79700  0.20300  0.20300  1.0000
  W   W2        1.0  0.20300  0.79700  0.79700  1.0000
  W   W3        1.0  0.20300  0.79700  0.20300  1.0000
  W   W4        1.0  0.20300  0.20300  0.79700  1.0000
  W   W5        1.0  0.79700  0.20300  0.79700  1.0000
  W   W6        1.0  0.79700  0.79700  0.20300  1.0000
  W   W7        1.0  0.04690  0.45300  0.04690  1.0000
  W   W8        1.0  0.45300  0.04690  0.45300  1.0000
  W   W9        1.0  0.45300  0.04690  0.04690  1.0000
  W   W10       1.0  0.04690  0.04690  0.45300  1.0000
  W   W11       1.0  0.04690  0.45300  0.45300  1.0000
  W   W12       1.0  0.45300  0.45300  0.04690  1.0000
