data_image0
_chemical_formula_structural       Bi2Ho6Mn
_chemical_formula_sum              "Bi2 Ho6 Mn1"
_cell_length_a       8.262
_cell_length_b       8.262
_cell_length_c       4.2477
_cell_angle_alpha    90
_cell_angle_beta     90
_cell_angle_gamma    120

_space_group_name_H-M_alt    "P 1"
_space_group_IT_number       1

loop_
  _space_group_symop_operation_xyz
  'x, y, z'

loop_
  _atom_site_type_symbol
  _atom_site_label
  _atom_site_symmetry_multiplicity
  _atom_site_fract_x
  _atom_site_fract_y
  _atom_site_fract_z
  _atom_site_occupancy
  Bi  Bi1       1.0  0.66700  0.33300  0.00000  1.0000
  Bi  Bi2       1.0  0.33300  0.66700  0.00000  1.0000
  Ho  Ho1       1.0  0.23300  0.00000  0.00000  1.0000
  Ho  Ho2       1.0  0.00000  0.23300  0.00000  1.0000
  Ho  Ho3       1.0  0.76700  0.76700  0.00000  1.0000
  Ho  Ho4       1.0  0.60700  1.00000  0.50000  1.0000
  Ho  Ho5       1.0  0.39300  0.39300  0.50000  1.0000
  Ho  Ho6       1.0  0.00000  0.60700  0.50000  1.0000
  Mn  Mn1       1.0  0.00000  0.00000  0.50000  1.0000
