data_image0
_chemical_formula_structural       Er6MnTe2
_chemical_formula_sum              "Er6 Mn1 Te2"
_cell_length_a       8.19756
_cell_length_b       8.19756
_cell_length_c       4.05188
_cell_angle_alpha    90
_cell_angle_beta     90
_cell_angle_gamma    119.999

_space_group_name_H-M_alt    "P 1"
_space_group_IT_number       1

loop_
  _space_group_symop_operation_xyz
  'x, y, z'

loop_
  _atom_site_type_symbol
  _atom_site_label
  _atom_site_symmetry_multiplicity
  _atom_site_fract_x
  _atom_site_fract_y
  _atom_site_fract_z
  _atom_site_occupancy
  Er  Er1       1.0  0.23700  0.00001  0.00000  1.0000
  Er  Er2       1.0  0.00001  0.23700  0.00000  1.0000
  Er  Er3       1.0  0.76300  0.76300  0.00000  1.0000
  Er  Er4       1.0  0.60600  0.00001  0.50000  1.0000
  Er  Er5       1.0  0.39400  0.39400  0.50000  1.0000
  Er  Er6       1.0  0.00001  0.60600  0.50000  1.0000
  Mn  Mn1       1.0  0.00001  0.00001  0.50000  1.0000
  Te  Te1       1.0  0.66700  0.33300  0.00000  1.0000
  Te  Te2       1.0  0.33300  0.66700  0.00000  1.0000
