data_image0
_chemical_formula_structural       As6Be6Cl2Li8O24
_chemical_formula_sum              "As6 Be6 Cl2 Li8 O24"
_cell_length_a       8.06124
_cell_length_b       8.06124
_cell_length_c       8.06124
_cell_angle_alpha    90
_cell_angle_beta     90
_cell_angle_gamma    90

_space_group_name_H-M_alt    "P 1"
_space_group_IT_number       1

loop_
  _space_group_symop_operation_xyz
  'x, y, z'

loop_
  _atom_site_type_symbol
  _atom_site_label
  _atom_site_symmetry_multiplicity
  _atom_site_fract_x
  _atom_site_fract_y
  _atom_site_fract_z
  _atom_site_occupancy
  As  As1       1.0  0.75000  0.50000  0.00000  1.0000
  As  As2       1.0  0.25000  0.50000  0.00000  1.0000
  As  As3       1.0  0.50000  0.00000  0.75000  1.0000
  As  As4       1.0  0.00000  0.75000  0.50000  1.0000
  As  As5       1.0  0.50000  0.00000  0.25000  1.0000
  As  As6       1.0  0.00000  0.25000  0.50000  1.0000
  Be  Be1       1.0  0.00000  0.50000  0.75000  1.0000
  Be  Be2       1.0  0.50000  0.75000  0.00000  1.0000
  Be  Be3       1.0  0.00000  0.50000  0.25000  1.0000
  Be  Be4       1.0  0.50000  0.25000  0.00000  1.0000
  Be  Be5       1.0  0.75000  0.00000  0.50000  1.0000
  Be  Be6       1.0  0.25000  0.00000  0.50000  1.0000
  Cl  Cl1       1.0  0.50000  0.50000  0.50000  1.0000
  Cl  Cl2       1.0  0.00000  0.00000  0.00000  1.0000
  Li  Li1       1.0  0.66400  0.33600  0.33600  1.0000
  Li  Li2       1.0  0.33600  0.66400  0.33600  1.0000
  Li  Li3       1.0  0.33600  0.33600  0.66400  1.0000
  Li  Li4       1.0  0.66400  0.66400  0.66400  1.0000
  Li  Li5       1.0  0.83600  0.16400  0.83600  1.0000
  Li  Li6       1.0  0.16400  0.83600  0.83600  1.0000
  Li  Li7       1.0  0.83600  0.83600  0.16400  1.0000
  Li  Li8       1.0  0.16400  0.16400  0.16400  1.0000
  O   O1        1.0  0.35900  0.89600  0.36900  1.0000
  O   O2        1.0  0.63100  0.35900  0.10400  1.0000
  O   O3        1.0  0.35900  0.10400  0.63100  1.0000
  O   O4        1.0  0.89600  0.36900  0.35900  1.0000
  O   O5        1.0  0.63100  0.64100  0.89600  1.0000
  O   O6        1.0  0.64100  0.89600  0.63100  1.0000
  O   O7        1.0  0.36900  0.35900  0.89600  1.0000
  O   O8        1.0  0.64100  0.10400  0.36900  1.0000
  O   O9        1.0  0.36900  0.64100  0.10400  1.0000
  O   O10       1.0  0.60400  0.85900  0.13100  1.0000
  O   O11       1.0  0.85900  0.13100  0.60400  1.0000
  O   O12       1.0  0.39600  0.85900  0.86900  1.0000
  O   O13       1.0  0.89600  0.63100  0.64100  1.0000
  O   O14       1.0  0.10400  0.36900  0.64100  1.0000
  O   O15       1.0  0.10400  0.63100  0.35900  1.0000
  O   O16       1.0  0.14100  0.86900  0.60400  1.0000
  O   O17       1.0  0.60400  0.14100  0.86900  1.0000
  O   O18       1.0  0.85900  0.86900  0.39600  1.0000
  O   O19       1.0  0.39600  0.14100  0.13100  1.0000
  O   O20       1.0  0.14100  0.13100  0.39600  1.0000
  O   O21       1.0  0.86900  0.39600  0.85900  1.0000
  O   O22       1.0  0.13100  0.60400  0.85900  1.0000
  O   O23       1.0  0.86900  0.60400  0.14100  1.0000
  O   O24       1.0  0.13100  0.39600  0.14100  1.0000
