data_image0
_chemical_formula_structural       C4H16N16O8
_chemical_formula_sum              "C4 H16 N16 O8"
_cell_length_a       3.67197
_cell_length_b       8.53027
_cell_length_c       9.82212
_cell_angle_alpha    87.9789
_cell_angle_beta     88.3486
_cell_angle_gamma    85.7627

_space_group_name_H-M_alt    "P 1"
_space_group_IT_number       1

loop_
  _space_group_symop_operation_xyz
  'x, y, z'

loop_
  _atom_site_type_symbol
  _atom_site_label
  _atom_site_symmetry_multiplicity
  _atom_site_fract_x
  _atom_site_fract_y
  _atom_site_fract_z
  _atom_site_occupancy
  C   C1        1.0  0.16200  0.68600  0.93500  1.0000
  C   C2        1.0  0.83800  0.31400  0.06470  1.0000
  C   C3        1.0  0.48200  0.66100  0.72600  1.0000
  C   C4        1.0  0.51800  0.33900  0.27400  1.0000
  H   H1        1.0  0.34200  0.53800  0.09410  1.0000
  H   H2        1.0  0.65800  0.46200  0.90600  1.0000
  H   H3        1.0  0.79700  0.60900  0.55700  1.0000
  H   H4        1.0  0.20300  0.39100  0.44300  1.0000
  H   H5        1.0  0.33300  0.89200  0.75800  1.0000
  H   H6        1.0  0.66700  0.10800  0.24200  1.0000
  H   H7        1.0  0.64900  0.44600  0.65300  1.0000
  H   H8        1.0  0.35100  0.55400  0.34700  1.0000
  H   H9        1.0  0.86900  0.84600  0.81300  1.0000
  H   H10       1.0  0.13100  0.15400  0.18700  1.0000
  H   H11       1.0  0.95100  0.67000  0.12900  1.0000
  H   H12       1.0  0.04900  0.33000  0.87100  1.0000
  H   H13       1.0  0.56600  0.85300  0.60200  1.0000
  H   H14       1.0  0.43400  0.14700  0.39800  1.0000
  H   H15       1.0  0.82800  0.87400  0.98500  1.0000
  H   H16       1.0  0.17200  0.12600  0.01450  1.0000
  N   N1        1.0  0.15600  0.63100  0.06260  1.0000
  N   N2        1.0  0.84400  0.36900  0.93700  1.0000
  N   N3        1.0  0.97300  0.15900  0.59500  1.0000
  N   N4        1.0  0.02660  0.84100  0.40500  1.0000
  N   N5        1.0  0.85200  0.08550  0.71000  1.0000
  N   N6        1.0  0.14800  0.91500  0.29000  1.0000
  N   N7        1.0  0.56200  0.15700  0.77600  1.0000
  N   N8        1.0  0.43800  0.84300  0.22400  1.0000
  N   N9        1.0  0.65900  0.56500  0.63900  1.0000
  N   N10       1.0  0.34100  0.43500  0.36100  1.0000
  N   N11       1.0  0.46300  0.81500  0.69400  1.0000
  N   N12       1.0  0.53700  0.18500  0.30600  1.0000
  N   N13       1.0  0.35700  0.59900  0.84300  1.0000
  N   N14       1.0  0.64300  0.40100  0.15700  1.0000
  N   N15       1.0  0.97900  0.82500  0.90700  1.0000
  N   N16       1.0  0.02090  0.17500  0.09300  1.0000
  O   O1        1.0  0.46500  0.07570  0.87700  1.0000
  O   O2        1.0  0.53500  0.92400  0.12300  1.0000
  O   O3        1.0  0.40200  0.28700  0.74300  1.0000
  O   O4        1.0  0.59800  0.71300  0.25700  1.0000
  O   O5        1.0  0.24900  0.08430  0.54600  1.0000
  O   O6        1.0  0.75100  0.91600  0.45400  1.0000
  O   O7        1.0  0.84200  0.28500  0.54200  1.0000
  O   O8        1.0  0.15800  0.71500  0.45800  1.0000
