data_image0
_chemical_formula_structural       F6LiOs
_chemical_formula_sum              "F6 Li1 Os1"
_cell_length_a       4.72919
_cell_length_b       4.72919
_cell_length_c       5.15514
_cell_angle_alpha    90
_cell_angle_beta     117.302
_cell_angle_gamma    60

_space_group_name_H-M_alt    "P 1"
_space_group_IT_number       1

loop_
  _space_group_symop_operation_xyz
  'x, y, z'

loop_
  _atom_site_type_symbol
  _atom_site_label
  _atom_site_symmetry_multiplicity
  _atom_site_fract_x
  _atom_site_fract_y
  _atom_site_fract_z
  _atom_site_occupancy
  F   F1        1.0  0.83700  0.24600  0.24900  1.0000
  F   F2        1.0  0.16600  0.58800  0.24900  1.0000
  F   F3        1.0  0.49500  0.91700  0.24900  1.0000
  F   F4        1.0  0.50500  0.08290  0.75100  1.0000
  F   F5        1.0  0.83400  0.41200  0.75100  1.0000
  F   F6        1.0  0.16300  0.75400  0.75100  1.0000
  Li  Li1       1.0  0.00000  0.50000  0.50000  1.0000
  Os  Os1       1.0  0.00000  0.00000  0.00000  1.0000
