data_image0
_chemical_formula_structural       Fe3Ni3P3
_chemical_formula_sum              "Fe3 Ni3 P3"
_cell_length_a       5.77604
_cell_length_b       5.77604
_cell_length_c       3.39914
_cell_angle_alpha    90
_cell_angle_beta     90
_cell_angle_gamma    119.989

_space_group_name_H-M_alt    "P 1"
_space_group_IT_number       1

loop_
  _space_group_symop_operation_xyz
  'x, y, z'

loop_
  _atom_site_type_symbol
  _atom_site_label
  _atom_site_symmetry_multiplicity
  _atom_site_fract_x
  _atom_site_fract_y
  _atom_site_fract_z
  _atom_site_occupancy
  Fe  Fe1       1.0  0.60000  0.00005  0.50000  1.0000
  Fe  Fe2       1.0  0.40000  0.40000  0.50000  1.0000
  Fe  Fe3       1.0  0.00005  0.60000  0.50000  1.0000
  Ni  Ni1       1.0  0.25800  0.00003  0.00000  1.0000
  Ni  Ni2       1.0  0.00003  0.25800  0.00000  1.0000
  Ni  Ni3       1.0  0.74200  0.74200  0.00000  1.0000
  P   P1        1.0  0.66700  0.33300  0.00000  1.0000
  P   P2        1.0  0.33300  0.66700  0.00000  1.0000
  P   P3        1.0  0.00000  0.00000  0.50000  1.0000
