data_image0
_chemical_formula_structural       F6K2Ti
_chemical_formula_sum              "F6 K2 Ti1"
_cell_length_a       5.53947
_cell_length_b       5.53942
_cell_length_c       4.45689
_cell_angle_alpha    90
_cell_angle_beta     90.0006
_cell_angle_gamma    120

_space_group_name_H-M_alt    "P 1"
_space_group_IT_number       1

loop_
  _space_group_symop_operation_xyz
  'x, y, z'

loop_
  _atom_site_type_symbol
  _atom_site_label
  _atom_site_symmetry_multiplicity
  _atom_site_fract_x
  _atom_site_fract_y
  _atom_site_fract_z
  _atom_site_occupancy
  F   F1        1.0  0.67300  0.83700  0.23400  1.0000
  F   F2        1.0  0.16300  0.32700  0.23400  1.0000
  F   F3        1.0  0.16300  0.83700  0.23400  1.0000
  F   F4        1.0  0.83700  0.16300  0.76600  1.0000
  F   F5        1.0  0.83700  0.67300  0.76600  1.0000
  F   F6        1.0  0.32700  0.16300  0.76600  1.0000
  K   K1        1.0  0.66700  0.33300  0.29100  1.0000
  K   K2        1.0  0.33300  0.66700  0.70900  1.0000
  Ti  Ti1       1.0  0.00000  0.00000  0.00000  1.0000
