data_image0
_chemical_formula_structural       C16H40N20Ni2
_chemical_formula_sum              "C16 H40 N20 Ni2"
_cell_length_a       6.01658
_cell_length_b       8.57362
_cell_length_c       10.7524
_cell_angle_alpha    90
_cell_angle_beta     98.7531
_cell_angle_gamma    90

_space_group_name_H-M_alt    "P 1"
_space_group_IT_number       1

loop_
  _space_group_symop_operation_xyz
  'x, y, z'

loop_
  _atom_site_type_symbol
  _atom_site_label
  _atom_site_symmetry_multiplicity
  _atom_site_fract_x
  _atom_site_fract_y
  _atom_site_fract_z
  _atom_site_occupancy
  C   C1        1.0  0.06660  0.10400  0.75700  1.0000
  C   C2        1.0  0.93300  0.60400  0.74300  1.0000
  C   C3        1.0  0.93300  0.89600  0.24300  1.0000
  C   C4        1.0  0.06660  0.39600  0.25700  1.0000
  C   C5        1.0  0.09200  0.16800  0.53900  1.0000
  C   C6        1.0  0.90800  0.66800  0.96100  1.0000
  C   C7        1.0  0.90800  0.83200  0.46100  1.0000
  C   C8        1.0  0.22400  0.73600  0.36600  1.0000
  C   C9        1.0  0.77600  0.23600  0.13400  1.0000
  C   C10       1.0  0.51900  0.37800  0.74800  1.0000
  C   C11       1.0  0.48100  0.87800  0.75200  1.0000
  C   C12       1.0  0.48100  0.62200  0.25200  1.0000
  C   C13       1.0  0.51900  0.12200  0.24800  1.0000
  C   C14       1.0  0.09200  0.33200  0.03920  1.0000
  C   C15       1.0  0.77600  0.26400  0.63400  1.0000
  C   C16       1.0  0.22400  0.76400  0.86600  1.0000
  H   H1        1.0  0.51200  0.30600  0.93000  1.0000
  H   H2        1.0  0.32700  0.45900  0.87800  1.0000
  H   H3        1.0  0.67300  0.95900  0.62200  1.0000
  H   H4        1.0  0.67300  0.54100  0.12200  1.0000
  H   H5        1.0  0.32700  0.04100  0.37800  1.0000
  H   H6        1.0  0.16000  0.00013  0.73900  1.0000
  H   H7        1.0  0.84000  0.50000  0.76100  1.0000
  H   H8        1.0  0.84000  0.00000  0.26100  1.0000
  H   H9        1.0  0.16000  0.50000  0.23900  1.0000
  H   H10       1.0  0.95100  0.07140  0.82100  1.0000
  H   H11       1.0  0.04950  0.57100  0.67900  1.0000
  H   H12       1.0  0.04950  0.92900  0.17900  1.0000
  H   H13       1.0  0.95100  0.42900  0.32100  1.0000
  H   H14       1.0  0.36300  0.57400  0.69600  1.0000
  H   H15       1.0  0.63700  0.07450  0.80400  1.0000
  H   H16       1.0  0.63700  0.42600  0.30400  1.0000
  H   H17       1.0  0.36300  0.92600  0.19600  1.0000
  H   H18       1.0  0.18600  0.19100  0.80300  1.0000
  H   H19       1.0  0.81400  0.69100  0.69700  1.0000
  H   H20       1.0  0.81400  0.80900  0.19700  1.0000
  H   H21       1.0  0.82200  0.71800  0.46000  1.0000
  H   H22       1.0  0.17800  0.21800  0.03970  1.0000
  H   H23       1.0  0.99500  0.14700  0.44500  1.0000
  H   H24       1.0  0.00492  0.64700  0.05460  1.0000
  H   H25       1.0  0.00493  0.85300  0.55500  1.0000
  H   H26       1.0  0.99500  0.35300  0.94500  1.0000
  H   H27       1.0  0.22100  0.07700  0.55800  1.0000
  H   H28       1.0  0.77900  0.57700  0.94200  1.0000
  H   H29       1.0  0.77900  0.92300  0.44200  1.0000
  H   H30       1.0  0.22100  0.42300  0.05780  1.0000
  H   H31       1.0  0.82700  0.33800  0.46700  1.0000
  H   H32       1.0  0.17300  0.83800  0.03330  1.0000
  H   H33       1.0  0.17300  0.66200  0.53300  1.0000
  H   H34       1.0  0.82700  0.16200  0.96700  1.0000
  H   H35       1.0  0.18600  0.30900  0.30300  1.0000
  H   H36       1.0  0.17800  0.28200  0.54000  1.0000
  H   H37       1.0  0.82200  0.78200  0.96000  1.0000
  H   H38       1.0  0.48800  0.80600  0.57000  1.0000
  H   H39       1.0  0.48800  0.69400  0.07020  1.0000
  H   H40       1.0  0.51200  0.19400  0.43000  1.0000
  N   N1        1.0  0.53500  0.60600  0.13300  1.0000
  N   N2        1.0  0.46500  0.10600  0.36700  1.0000
  N   N3        1.0  0.67300  0.26600  0.73700  1.0000
  N   N4        1.0  0.32700  0.76600  0.76300  1.0000
  N   N5        1.0  0.32700  0.73400  0.26300  1.0000
  N   N6        1.0  0.67300  0.23400  0.23700  1.0000
  N   N7        1.0  0.72200  0.35200  0.53200  1.0000
  N   N8        1.0  0.27800  0.85200  0.96800  1.0000
  N   N9        1.0  0.27800  0.64800  0.46800  1.0000
  N   N10       1.0  0.72200  0.14800  0.03210  1.0000
  N   N11       1.0  0.43100  0.47600  0.66000  1.0000
  N   N12       1.0  0.56900  0.97600  0.84000  1.0000
  N   N13       1.0  0.56900  0.52400  0.34000  1.0000
  N   N14       1.0  0.43100  0.02420  0.16000  1.0000
  N   N15       1.0  0.94900  0.15800  0.63700  1.0000
  N   N16       1.0  0.05070  0.65800  0.86300  1.0000
  N   N17       1.0  0.05070  0.84200  0.36300  1.0000
  N   N18       1.0  0.94900  0.34200  0.13700  1.0000
  N   N19       1.0  0.46500  0.39400  0.86700  1.0000
  N   N20       1.0  0.53500  0.89400  0.63300  1.0000
  Ni  Ni1       1.0  0.50000  0.50000  0.50000  1.0000
  Ni  Ni2       1.0  0.50000  0.00000  0.00000  1.0000
