data_image0
_chemical_formula_structural       Al4C16H64Li4N16
_chemical_formula_sum              "Al4 C16 H64 Li4 N16"
_cell_length_a       9.98614
_cell_length_b       9.98615
_cell_length_c       9.98305
_cell_angle_alpha    101.375
_cell_angle_beta     101.378
_cell_angle_gamma    127.297

_space_group_name_H-M_alt    "P 1"
_space_group_IT_number       1

loop_
  _space_group_symop_operation_xyz
  'x, y, z'

loop_
  _atom_site_type_symbol
  _atom_site_label
  _atom_site_symmetry_multiplicity
  _atom_site_fract_x
  _atom_site_fract_y
  _atom_site_fract_z
  _atom_site_occupancy
  Al  Al1       1.0  0.93600  0.62000  0.65700  1.0000
  Al  Al2       1.0  0.96300  0.27900  0.34300  1.0000
  Al  Al3       1.0  0.02900  0.18600  0.81600  1.0000
  Al  Al4       1.0  0.37000  0.21300  0.18400  1.0000
  C   C1        1.0  0.69100  0.62000  0.76900  1.0000
  C   C2        1.0  0.85100  0.92100  0.23100  1.0000
  C   C3        1.0  0.67100  0.94000  0.57100  1.0000
  C   C4        1.0  0.37000  0.10100  0.42900  1.0000
  C   C5        1.0  0.33100  0.88000  0.72600  1.0000
  C   C6        1.0  0.15400  0.60600  0.27400  1.0000
  C   C7        1.0  0.35600  0.58200  0.95100  1.0000
  C   C8        1.0  0.63000  0.40400  0.04870  1.0000
  C   C9        1.0  0.89000  0.70700  0.40500  1.0000
  C   C10       1.0  0.55000  0.98900  0.21600  1.0000
  C   C11       1.0  0.73900  0.02300  0.93900  1.0000
  C   C12       1.0  0.08400  0.80000  0.06090  1.0000
  C   C13       1.0  0.30300  0.48500  0.59600  1.0000
  C   C14       1.0  0.23500  0.14000  0.68300  1.0000
  C   C15       1.0  0.45700  0.55300  0.31700  1.0000
  C   C16       1.0  0.77300  0.33400  0.78400  1.0000
  H   H1        1.0  0.39100  0.81700  0.71800  1.0000
  H   H2        1.0  0.09930  0.67400  0.28200  1.0000
  H   H3        1.0  0.42400  0.64200  0.07450  1.0000
  H   H4        1.0  0.56700  0.34900  0.92600  1.0000
  H   H5        1.0  0.81400  0.77700  0.65600  1.0000
  H   H6        1.0  0.12000  0.15800  0.34400  1.0000
  H   H7        1.0  0.90700  0.06390  0.53700  1.0000
  H   H8        1.0  0.52700  0.37100  0.46300  1.0000
  H   H9        1.0  0.44800  0.02930  0.79500  1.0000
  H   H10       1.0  0.23400  0.65300  0.20500  1.0000
  H   H11       1.0  0.27600  0.86800  0.61300  1.0000
  H   H12       1.0  0.25500  0.66400  0.38700  1.0000
  H   H13       1.0  0.41400  0.52600  0.90800  1.0000
  H   H14       1.0  0.61800  0.50500  0.09160  1.0000
  H   H15       1.0  0.23000  0.77500  0.87200  1.0000
  H   H16       1.0  0.90300  0.35800  0.12800  1.0000
  H   H17       1.0  0.10800  0.48000  0.95500  1.0000
  H   H18       1.0  0.52500  0.15300  0.04490  1.0000
  H   H19       1.0  0.70500  0.29600  0.56600  1.0000
  H   H20       1.0  0.73000  0.13900  0.43400  1.0000
  H   H21       1.0  0.88900  0.95500  0.90900  1.0000
  H   H22       1.0  0.04580  0.98000  0.09080  1.0000
  H   H23       1.0  0.00748  0.60000  0.43400  1.0000
  H   H24       1.0  0.16600  0.57300  0.56600  1.0000
  H   H25       1.0  0.32300  0.25800  0.90700  1.0000
  H   H26       1.0  0.35000  0.41600  0.09270  1.0000
  H   H27       1.0  0.00058  0.79600  0.37000  1.0000
  H   H28       1.0  0.42600  0.63100  0.63000  1.0000
  H   H29       1.0  0.38100  0.25100  0.70400  1.0000
  H   H30       1.0  0.55000  0.56300  0.40900  1.0000
  H   H31       1.0  0.65000  0.69700  0.80700  1.0000
  H   H32       1.0  0.89000  0.84300  0.19300  1.0000
  H   H33       1.0  0.59300  0.90000  0.45300  1.0000
  H   H34       1.0  0.44700  0.14000  0.54700  1.0000
  H   H35       1.0  0.73300  0.59500  0.86500  1.0000
  H   H36       1.0  0.73000  0.86700  0.13500  1.0000
  H   H37       1.0  0.61700  0.98200  0.63700  1.0000
  H   H38       1.0  0.34500  0.98000  0.36300  1.0000
  H   H39       1.0  0.56400  0.48300  0.68300  1.0000
  H   H40       1.0  0.80100  0.88100  0.31700  1.0000
  H   H41       1.0  0.63100  0.81400  0.58000  1.0000
  H   H42       1.0  0.23300  0.05060  0.42000  1.0000
  H   H43       1.0  0.63600  0.27900  0.77600  1.0000
  H   H44       1.0  0.50300  0.86000  0.22400  1.0000
  H   H45       1.0  0.61000  0.88600  0.85700  1.0000
  H   H46       1.0  0.02900  0.75300  0.14300  1.0000
  H   H47       1.0  0.87200  0.44800  0.89500  1.0000
  H   H48       1.0  0.55300  0.97800  0.10500  1.0000
  H   H49       1.0  0.72800  0.12200  0.92500  1.0000
  H   H50       1.0  0.19800  0.80300  0.07540  1.0000
  H   H51       1.0  0.77500  0.22500  0.78400  1.0000
  H   H52       1.0  0.97500  0.69000  0.95000  1.0000
  H   H53       1.0  0.75900  0.62300  0.30700  1.0000
  H   H54       1.0  0.31600  0.45200  0.69300  1.0000
  H   H55       1.0  0.20200  0.00916  0.63600  1.0000
  H   H56       1.0  0.37300  0.56600  0.36400  1.0000
  H   H57       1.0  0.44100  0.99100  0.21600  1.0000
  H   H58       1.0  0.74100  0.02490  0.05020  1.0000
  H   H59       1.0  0.54600  0.67600  0.29600  1.0000
  H   H60       1.0  0.89200  0.80000  0.48700  1.0000
  H   H61       1.0  0.31300  0.40500  0.51300  1.0000
  H   H62       1.0  0.15400  0.14100  0.59100  1.0000
  H   H63       1.0  0.40300  0.69800  0.91900  1.0000
  H   H64       1.0  0.77900  0.48400  0.08100  1.0000
  Li  Li1       1.0  0.11700  0.94600  0.86400  1.0000
  Li  Li2       1.0  0.08200  0.25300  0.13600  1.0000
  Li  Li3       1.0  0.00313  0.36700  0.67100  1.0000
  Li  Li4       1.0  0.69600  0.33200  0.32900  1.0000
  N   N1        1.0  0.84000  0.72000  0.72100  1.0000
  N   N2        1.0  0.00000  0.11900  0.27900  1.0000
  N   N3        1.0  0.86900  0.08960  0.61900  1.0000
  N   N4        1.0  0.47000  0.25000  0.38100  1.0000
  N   N5        1.0  0.81800  0.39300  0.66500  1.0000
  N   N6        1.0  0.72700  0.15200  0.33500  1.0000
  N   N7        1.0  0.90200  0.06760  0.92500  1.0000
  N   N8        1.0  0.13400  0.45000  0.53600  1.0000
  N   N9        1.0  0.20000  0.16400  0.81600  1.0000
  N   N10       1.0  0.34800  0.38400  0.18400  1.0000
  N   N11       1.0  0.18800  0.79600  0.78200  1.0000
  N   N12       1.0  0.01390  0.40600  0.21800  1.0000
  N   N13       1.0  0.15600  0.43800  0.89200  1.0000
  N   N14       1.0  0.54600  0.26400  0.10800  1.0000
  N   N15       1.0  0.14300  0.97700  0.07500  1.0000
  N   N16       1.0  0.91400  0.59800  0.46400  1.0000
