data_image0
_chemical_formula_structural       C36H108Li4N8Si12
_chemical_formula_sum              "C36 H108 Li4 N8 Si12"
_cell_length_a       8.12239
_cell_length_b       9.01977
_cell_length_c       20.457
_cell_angle_alpha    101.406
_cell_angle_beta     91.9566
_cell_angle_gamma    115.81

_space_group_name_H-M_alt    "P 1"
_space_group_IT_number       1

loop_
  _space_group_symop_operation_xyz
  'x, y, z'

loop_
  _atom_site_type_symbol
  _atom_site_label
  _atom_site_symmetry_multiplicity
  _atom_site_fract_x
  _atom_site_fract_y
  _atom_site_fract_z
  _atom_site_occupancy
  C   C1        1.0  0.63700  0.95600  0.86400  1.0000
  C   C2        1.0  0.36300  0.04430  0.13600  1.0000
  C   C3        1.0  0.87800  0.91300  0.75700  1.0000
  C   C4        1.0  0.12200  0.08730  0.24300  1.0000
  C   C5        1.0  0.58400  0.60900  0.80400  1.0000
  C   C6        1.0  0.41600  0.39100  0.19600  1.0000
  C   C7        1.0  0.20200  0.78900  0.96500  1.0000
  C   C8        1.0  0.79800  0.21100  0.03510  1.0000
  C   C9        1.0  0.40700  0.28100  0.98700  1.0000
  C   C10       1.0  0.59300  0.71900  0.01280  1.0000
  C   C11       1.0  0.17700  0.36000  0.89200  1.0000
  C   C12       1.0  0.82300  0.64000  0.10800  1.0000
  C   C13       1.0  0.34000  0.11500  0.84000  1.0000
  C   C14       1.0  0.66000  0.88500  0.16000  1.0000
  C   C15       1.0  0.09040  0.65100  0.81200  1.0000
  C   C16       1.0  0.91000  0.34900  0.18800  1.0000
  C   C17       1.0  0.82400  0.50100  0.91100  1.0000
  C   C18       1.0  0.17600  0.49900  0.08940  1.0000
  C   C19       1.0  0.19600  0.95800  0.39400  1.0000
  C   C20       1.0  0.80400  0.04220  0.60600  1.0000
  C   C21       1.0  0.25400  0.77000  0.25900  1.0000
  C   C22       1.0  0.74600  0.23000  0.74100  1.0000
  C   C23       1.0  0.72400  0.75900  0.30300  1.0000
  C   C24       1.0  0.27600  0.24100  0.69700  1.0000
  C   C25       1.0  0.42700  0.47900  0.36100  1.0000
  C   C26       1.0  0.57300  0.52100  0.63900  1.0000
  C   C27       1.0  0.96800  0.21700  0.40900  1.0000
  C   C28       1.0  0.03160  0.78300  0.59100  1.0000
  C   C29       1.0  0.70600  0.35600  0.46500  1.0000
  C   C30       1.0  0.29400  0.64400  0.53500  1.0000
  C   C31       1.0  0.64100  0.17900  0.31600  1.0000
  C   C32       1.0  0.35900  0.82100  0.68400  1.0000
  C   C33       1.0  0.06240  0.58500  0.36200  1.0000
  C   C34       1.0  0.93800  0.41500  0.63800  1.0000
  C   C35       1.0  0.76000  0.76500  0.45200  1.0000
  C   C36       1.0  0.24000  0.23500  0.54800  1.0000
  H   H1        1.0  0.81500  0.89600  0.31300  1.0000
  H   H2        1.0  0.18500  0.10400  0.68700  1.0000
  H   H3        1.0  0.50100  0.40300  0.34700  1.0000
  H   H4        1.0  0.49900  0.59700  0.65300  1.0000
  H   H5        1.0  0.29500  0.08680  0.39200  1.0000
  H   H6        1.0  0.70500  0.91300  0.60800  1.0000
  H   H7        1.0  0.06050  0.93500  0.37100  1.0000
  H   H8        1.0  0.93900  0.06450  0.62900  1.0000
  H   H9        1.0  0.18200  0.95000  0.44700  1.0000
  H   H10       1.0  0.81800  0.05020  0.55300  1.0000
  H   H11       1.0  0.35500  0.88500  0.24600  1.0000
  H   H12       1.0  0.64500  0.11500  0.75400  1.0000
  H   H13       1.0  0.28200  0.66400  0.23500  1.0000
  H   H14       1.0  0.71800  0.33600  0.76500  1.0000
  H   H15       1.0  0.11600  0.74200  0.23500  1.0000
  H   H16       1.0  0.88400  0.25800  0.76500  1.0000
  H   H17       1.0  0.81200  0.69400  0.29500  1.0000
  H   H18       1.0  0.18800  0.30600  0.70500  1.0000
  H   H19       1.0  0.63200  0.72100  0.25600  1.0000
  H   H20       1.0  0.36800  0.27900  0.74400  1.0000
  H   H21       1.0  0.09200  0.38600  0.92800  1.0000
  H   H22       1.0  0.90800  0.61400  0.07170  1.0000
  H   H23       1.0  0.09850  0.32100  0.84100  1.0000
  H   H24       1.0  0.90200  0.67900  0.15900  1.0000
  H   H25       1.0  0.37000  0.01690  0.85400  1.0000
  H   H26       1.0  0.63000  0.98300  0.14600  1.0000
  H   H27       1.0  0.30200  0.47900  0.89400  1.0000
  H   H28       1.0  0.69800  0.52100  0.10600  1.0000
  H   H29       1.0  0.45500  0.18800  0.99600  1.0000
  H   H30       1.0  0.54500  0.81200  0.00417  1.0000
  H   H31       1.0  0.35600  0.32200  0.03310  1.0000
  H   H32       1.0  0.64400  0.67800  0.96700  1.0000
  H   H33       1.0  0.53100  0.39100  0.98200  1.0000
  H   H34       1.0  0.46900  0.60900  0.01840  1.0000
  H   H35       1.0  0.47100  0.21600  0.83300  1.0000
  H   H36       1.0  0.52900  0.78400  0.16700  1.0000
  H   H37       1.0  0.24900  0.05910  0.79200  1.0000
  H   H38       1.0  0.75100  0.94100  0.20800  1.0000
  H   H39       1.0  0.93200  0.57100  0.33700  1.0000
  H   H40       1.0  0.06790  0.42900  0.66300  1.0000
  H   H41       1.0  0.84900  0.70300  0.43900  1.0000
  H   H42       1.0  0.15100  0.29700  0.56100  1.0000
  H   H43       1.0  0.63600  0.52000  0.78000  1.0000
  H   H44       1.0  0.36400  0.48000  0.22000  1.0000
  H   H45       1.0  0.47500  0.59900  0.76700  1.0000
  H   H46       1.0  0.52500  0.40100  0.23300  1.0000
  H   H47       1.0  0.96100  0.84800  0.74000  1.0000
  H   H48       1.0  0.03880  0.15200  0.26000  1.0000
  H   H49       1.0  0.96900  0.04960  0.77200  1.0000
  H   H50       1.0  0.03080  0.95000  0.22800  1.0000
  H   H51       1.0  0.77600  0.88900  0.71500  1.0000
  H   H52       1.0  0.22400  0.11100  0.28500  1.0000
  H   H53       1.0  0.52800  0.92400  0.82200  1.0000
  H   H54       1.0  0.47200  0.07650  0.17800  1.0000
  H   H55       1.0  0.71800  0.09400  0.87800  1.0000
  H   H56       1.0  0.28200  0.90600  0.12200  1.0000
  H   H57       1.0  0.56500  0.91300  0.90600  1.0000
  H   H58       1.0  0.43500  0.08730  0.09390  1.0000
  H   H59       1.0  0.36900  0.45200  0.40800  1.0000
  H   H60       1.0  0.63100  0.54800  0.59200  1.0000
  H   H61       1.0  0.07600  0.47100  0.34100  1.0000
  H   H62       1.0  0.92400  0.52900  0.65900  1.0000
  H   H63       1.0  0.72000  0.30300  0.30500  1.0000
  H   H64       1.0  0.28000  0.69700  0.69500  1.0000
  H   H65       1.0  0.49400  0.14900  0.30900  1.0000
  H   H66       1.0  0.50600  0.85100  0.69100  1.0000
  H   H67       1.0  0.04850  0.58900  0.41600  1.0000
  H   H68       1.0  0.95100  0.41100  0.58400  1.0000
  H   H69       1.0  0.65900  0.08460  0.27700  1.0000
  H   H70       1.0  0.34100  0.91500  0.72300  1.0000
  H   H71       1.0  0.82200  0.47900  0.46500  1.0000
  H   H72       1.0  0.17800  0.52100  0.53500  1.0000
  H   H73       1.0  0.71400  0.34100  0.51700  1.0000
  H   H74       1.0  0.28600  0.65900  0.48300  1.0000
  H   H75       1.0  0.99100  0.14500  0.44300  1.0000
  H   H76       1.0  0.00902  0.85500  0.55700  1.0000
  H   H77       1.0  0.69600  0.71900  0.49500  1.0000
  H   H78       1.0  0.30400  0.28100  0.50500  1.0000
  H   H79       1.0  0.31100  0.43400  0.32200  1.0000
  H   H80       1.0  0.68900  0.56600  0.67800  1.0000
  H   H81       1.0  0.57900  0.36700  0.45300  1.0000
  H   H82       1.0  0.42100  0.63300  0.54700  1.0000
  H   H83       1.0  0.85000  0.90200  0.46800  1.0000
  H   H84       1.0  0.15000  0.09850  0.53200  1.0000
  H   H85       1.0  0.20600  0.76400  0.80300  1.0000
  H   H86       1.0  0.79400  0.23600  0.19700  1.0000
  H   H87       1.0  0.13500  0.55200  0.81000  1.0000
  H   H88       1.0  0.86500  0.44800  0.19000  1.0000
  H   H89       1.0  0.15100  0.80700  0.01370  1.0000
  H   H90       1.0  0.84900  0.19300  0.98600  1.0000
  H   H91       1.0  0.25700  0.69800  0.96500  1.0000
  H   H92       1.0  0.74300  0.30200  0.03490  1.0000
  H   H93       1.0  0.68500  0.47600  0.89200  1.0000
  H   H94       1.0  0.31500  0.52400  0.10800  1.0000
  H   H95       1.0  0.84400  0.39100  0.88700  1.0000
  H   H96       1.0  0.15600  0.60900  0.11300  1.0000
  H   H97       1.0  0.98000  0.60600  0.77000  1.0000
  H   H98       1.0  0.02050  0.39400  0.23000  1.0000
  H   H99       1.0  0.83000  0.50900  0.96500  1.0000
  H   H100      1.0  0.17000  0.49100  0.03500  1.0000
  H   H101      1.0  0.31800  0.90900  0.96100  1.0000
  H   H102      1.0  0.68200  0.09100  0.03940  1.0000
  H   H103      1.0  0.01040  0.18000  0.36100  1.0000
  H   H104      1.0  0.99000  0.82000  0.63900  1.0000
  H   H105      1.0  0.06340  0.35200  0.43100  1.0000
  H   H106      1.0  0.93700  0.64900  0.56900  1.0000
  H   H107      1.0  0.51900  0.56700  0.84700  1.0000
  H   H108      1.0  0.48100  0.43300  0.15300  1.0000
  Li  Li1       1.0  0.54100  0.89000  0.50300  1.0000
  Li  Li2       1.0  0.45900  0.10900  0.49700  1.0000
  Li  Li3       1.0  0.84100  0.95100  0.97900  1.0000
  Li  Li4       1.0  0.15900  0.04880  0.02120  1.0000
  N   N1        1.0  0.46800  0.82800  0.39400  1.0000
  N   N2        1.0  0.53200  0.17200  0.60600  1.0000
  N   N3        1.0  0.57700  0.00609  0.43200  1.0000
  N   N4        1.0  0.42300  0.99400  0.56800  1.0000
  N   N5        1.0  0.92600  0.85200  0.89400  1.0000
  N   N6        1.0  0.07370  0.14800  0.10600  1.0000
  N   N7        1.0  0.04460  0.02930  0.93100  1.0000
  N   N8        1.0  0.95500  0.97100  0.06890  1.0000
  Si  Si1       1.0  0.71900  0.17600  0.40300  1.0000
  Si  Si2       1.0  0.28100  0.82400  0.59700  1.0000
  Si  Si3       1.0  0.25500  0.78700  0.35200  1.0000
  Si  Si4       1.0  0.74500  0.21300  0.64800  1.0000
  Si  Si5       1.0  0.59100  0.71000  0.37600  1.0000
  Si  Si6       1.0  0.40900  0.29000  0.62400  1.0000
  Si  Si7       1.0  0.22900  0.18600  0.90900  1.0000
  Si  Si8       1.0  0.77100  0.81400  0.09080  1.0000
  Si  Si9       1.0  0.76500  0.83500  0.83000  1.0000
  Si  Si10      1.0  0.23500  0.16500  0.17000  1.0000
  Si  Si11      1.0  0.00853  0.70200  0.89400  1.0000
  Si  Si12      1.0  0.99100  0.29800  0.10600  1.0000
