data_image0
_chemical_formula_structural       C20H62N2Si12
_chemical_formula_sum              "C20 H62 N2 Si12"
_cell_length_a       9.33397
_cell_length_b       9.33397
_cell_length_c       15.7763
_cell_angle_alpha    74.6803
_cell_angle_beta     105.32
_cell_angle_gamma    135.546

_space_group_name_H-M_alt    "P 1"
_space_group_IT_number       1

loop_
  _space_group_symop_operation_xyz
  'x, y, z'

loop_
  _atom_site_type_symbol
  _atom_site_label
  _atom_site_symmetry_multiplicity
  _atom_site_fract_x
  _atom_site_fract_y
  _atom_site_fract_z
  _atom_site_occupancy
  C   C1        1.0  0.54000  0.82200  0.08210  1.0000
  C   C2        1.0  0.82200  0.54000  0.41800  1.0000
  C   C3        1.0  0.46000  0.17800  0.91800  1.0000
  C   C4        1.0  0.17800  0.46000  0.58200  1.0000
  C   C5        1.0  0.86800  0.29700  0.08960  1.0000
  C   C6        1.0  0.29700  0.86800  0.41000  1.0000
  C   C7        1.0  0.13200  0.70300  0.91000  1.0000
  C   C8        1.0  0.70300  0.13200  0.59000  1.0000
  C   C9        1.0  0.22800  0.24400  0.05730  1.0000
  C   C10       1.0  0.24400  0.22800  0.44300  1.0000
  C   C11       1.0  0.77200  0.75600  0.94300  1.0000
  C   C12       1.0  0.75600  0.77200  0.55700  1.0000
  C   C13       1.0  0.53200  0.73200  0.33000  1.0000
  C   C14       1.0  0.73200  0.53200  0.17000  1.0000
  C   C15       1.0  0.46800  0.26800  0.67000  1.0000
  C   C16       1.0  0.26800  0.46800  0.83000  1.0000
  C   C17       1.0  0.81400  0.20200  0.33200  1.0000
  C   C18       1.0  0.20200  0.81400  0.16800  1.0000
  C   C19       1.0  0.18600  0.79800  0.66800  1.0000
  C   C20       1.0  0.79800  0.18600  0.83200  1.0000
  H   H1        1.0  0.55800  0.83900  0.01300  1.0000
  H   H2        1.0  0.83900  0.55800  0.48700  1.0000
  H   H3        1.0  0.44200  0.16100  0.98700  1.0000
  H   H4        1.0  0.16100  0.44200  0.51300  1.0000
  H   H5        1.0  0.68400  0.18900  0.30700  1.0000
  H   H6        1.0  0.18900  0.68400  0.19300  1.0000
  H   H7        1.0  0.31600  0.81100  0.69300  1.0000
  H   H8        1.0  0.81100  0.31600  0.80700  1.0000
  H   H9        1.0  0.95500  0.35800  0.31100  1.0000
  H   H10       1.0  0.35800  0.95500  0.18900  1.0000
  H   H11       1.0  0.04460  0.64200  0.68900  1.0000
  H   H12       1.0  0.64200  0.04460  0.81100  1.0000
  H   H13       1.0  0.82900  0.18600  0.40500  1.0000
  H   H14       1.0  0.18600  0.82900  0.09480  1.0000
  H   H15       1.0  0.17100  0.81400  0.59500  1.0000
  H   H16       1.0  0.81400  0.17100  0.90500  1.0000
  H   H17       1.0  0.52400  0.70500  0.40100  1.0000
  H   H18       1.0  0.70500  0.52400  0.09910  1.0000
  H   H19       1.0  0.47600  0.29500  0.59900  1.0000
  H   H20       1.0  0.29500  0.47600  0.90100  1.0000
  H   H21       1.0  0.52400  0.61700  0.31500  1.0000
  H   H22       1.0  0.61700  0.52400  0.18500  1.0000
  H   H23       1.0  0.47600  0.38300  0.68500  1.0000
  H   H24       1.0  0.38300  0.47600  0.81500  1.0000
  H   H25       1.0  0.39600  0.70100  0.29400  1.0000
  H   H26       1.0  0.70100  0.39600  0.20600  1.0000
  H   H27       1.0  0.60400  0.29900  0.70600  1.0000
  H   H28       1.0  0.29900  0.60400  0.79400  1.0000
  H   H29       1.0  0.41500  0.81100  0.08170  1.0000
  H   H30       1.0  0.81100  0.41500  0.41800  1.0000
  H   H31       1.0  0.58500  0.18900  0.91800  1.0000
  H   H32       1.0  0.18900  0.58500  0.58200  1.0000
  H   H33       1.0  0.49100  0.67500  0.11400  1.0000
  H   H34       1.0  0.67500  0.49100  0.38600  1.0000
  H   H35       1.0  0.50900  0.32500  0.88600  1.0000
  H   H36       1.0  0.32500  0.50900  0.61400  1.0000
  H   H37       1.0  0.28300  0.39700  0.04660  1.0000
  H   H38       1.0  0.39700  0.28300  0.45300  1.0000
  H   H39       1.0  0.71700  0.60300  0.95300  1.0000
  H   H40       1.0  0.60300  0.71700  0.54700  1.0000
  H   H41       1.0  0.13200  0.16900  0.99700  1.0000
  H   H42       1.0  0.16900  0.13200  0.50300  1.0000
  H   H43       1.0  0.86800  0.83100  0.00328  1.0000
  H   H44       1.0  0.83100  0.86800  0.49700  1.0000
  H   H45       1.0  0.35900  0.35900  0.25000  1.0000
  H   H46       1.0  0.64100  0.64100  0.75000  1.0000
  H   H47       1.0  0.01910  0.42400  0.12200  1.0000
  H   H48       1.0  0.42400  0.01910  0.37800  1.0000
  H   H49       1.0  0.98100  0.57600  0.87800  1.0000
  H   H50       1.0  0.57600  0.98100  0.62200  1.0000
  H   H51       1.0  0.75800  0.30200  0.09630  1.0000
  H   H52       1.0  0.30200  0.75800  0.40400  1.0000
  H   H53       1.0  0.24200  0.69800  0.90400  1.0000
  H   H54       1.0  0.69800  0.24200  0.59600  1.0000
  H   H55       1.0  0.36200  0.26400  0.06650  1.0000
  H   H56       1.0  0.26400  0.36200  0.43400  1.0000
  H   H57       1.0  0.63800  0.73600  0.93400  1.0000
  H   H58       1.0  0.73600  0.63800  0.56600  1.0000
  H   H59       1.0  0.88200  0.32400  0.01880  1.0000
  H   H60       1.0  0.32400  0.88200  0.48100  1.0000
  H   H61       1.0  0.11800  0.67600  0.98100  1.0000
  H   H62       1.0  0.67600  0.11800  0.51900  1.0000
  N   N1        1.0  0.21500  0.21500  0.25000  1.0000
  N   N2        1.0  0.78500  0.78500  0.75000  1.0000
  Si  Si1       1.0  0.77800  0.00012  0.29500  1.0000
  Si  Si2       1.0  0.00012  0.77800  0.20500  1.0000
  Si  Si3       1.0  0.22200  0.00000  0.70500  1.0000
  Si  Si4       1.0  0.00000  0.22200  0.79500  1.0000
  Si  Si5       1.0  0.78800  0.04420  0.14200  1.0000
  Si  Si6       1.0  0.04420  0.78800  0.35800  1.0000
  Si  Si7       1.0  0.21200  0.95600  0.85800  1.0000
  Si  Si8       1.0  0.95600  0.21200  0.64200  1.0000
  Si  Si9       1.0  0.07240  0.08480  0.15400  1.0000
  Si  Si10      1.0  0.08480  0.07240  0.34600  1.0000
  Si  Si11      1.0  0.92800  0.91500  0.84600  1.0000
  Si  Si12      1.0  0.91500  0.92800  0.65400  1.0000
