data_image0
_chemical_formula_structural       C38H114Si20
_chemical_formula_sum              "C38 H114 Si20"
_cell_length_a       9.42958
_cell_length_b       13.2229
_cell_length_c       14.5734
_cell_angle_alpha    104.494
_cell_angle_beta     99.0199
_cell_angle_gamma    112.362

_space_group_name_H-M_alt    "P 1"
_space_group_IT_number       1

loop_
  _space_group_symop_operation_xyz
  'x, y, z'

loop_
  _atom_site_type_symbol
  _atom_site_label
  _atom_site_symmetry_multiplicity
  _atom_site_fract_x
  _atom_site_fract_y
  _atom_site_fract_z
  _atom_site_occupancy
  C   C1        1.0  0.48600  0.30400  0.31600  1.0000
  C   C2        1.0  0.51400  0.69600  0.68400  1.0000
  C   C3        1.0  0.43300  0.21200  0.08740  1.0000
  C   C4        1.0  0.56700  0.78800  0.91300  1.0000
  C   C5        1.0  0.99000  0.48000  0.14200  1.0000
  C   C6        1.0  0.00973  0.52000  0.85800  1.0000
  C   C7        1.0  0.01910  0.55800  0.36600  1.0000
  C   C8        1.0  0.98100  0.44200  0.63400  1.0000
  C   C9        1.0  0.47100  0.58600  0.42200  1.0000
  C   C10       1.0  0.52900  0.41400  0.57800  1.0000
  C   C11       1.0  0.06220  0.04700  0.18100  1.0000
  C   C12       1.0  0.93800  0.95300  0.81900  1.0000
  C   C13       1.0  0.98900  0.17200  0.04160  1.0000
  C   C14       1.0  0.01130  0.82800  0.95800  1.0000
  C   C15       1.0  0.79500  0.23600  0.23300  1.0000
  C   C16       1.0  0.20500  0.76400  0.76700  1.0000
  C   C17       1.0  0.09590  0.32900  0.41300  1.0000
  C   C18       1.0  0.90400  0.67100  0.58700  1.0000
  C   C19       1.0  0.86400  0.01700  0.36300  1.0000
  C   C20       1.0  0.13600  0.98300  0.63700  1.0000
  C   C21       1.0  0.84400  0.79400  0.38400  1.0000
  C   C22       1.0  0.15600  0.20600  0.61600  1.0000
  C   C23       1.0  0.32200  0.82000  0.53200  1.0000
  C   C24       1.0  0.67800  0.18000  0.46800  1.0000
  C   C25       1.0  0.68400  0.92600  0.57400  1.0000
  C   C26       1.0  0.31600  0.07370  0.42600  1.0000
  C   C27       1.0  0.33900  0.45000  0.04680  1.0000
  C   C28       1.0  0.66100  0.55000  0.95300  1.0000
  C   C29       1.0  0.66800  0.53000  0.19200  1.0000
  C   C30       1.0  0.33200  0.47000  0.80800  1.0000
  C   C31       1.0  0.71300  0.80300  0.17600  1.0000
  C   C32       1.0  0.28700  0.19700  0.82400  1.0000
  C   C33       1.0  0.28900  0.71000  0.07630  1.0000
  C   C34       1.0  0.71100  0.29000  0.92400  1.0000
  C   C35       1.0  0.11500  0.79500  0.21400  1.0000
  C   C36       1.0  0.88500  0.20500  0.78600  1.0000
  C   C37       1.0  0.41800  0.96300  0.17600  1.0000
  C   C38       1.0  0.58200  0.03670  0.82400  1.0000
  H   H1        1.0  0.96200  0.81400  0.37000  1.0000
  H   H2        1.0  0.03810  0.18600  0.63000  1.0000
  H   H3        1.0  0.85700  0.05550  0.43800  1.0000
  H   H4        1.0  0.14300  0.94400  0.56200  1.0000
  H   H5        1.0  0.83100  0.06270  0.31600  1.0000
  H   H6        1.0  0.16900  0.93700  0.68400  1.0000
  H   H7        1.0  0.98900  0.03440  0.36900  1.0000
  H   H8        1.0  0.01080  0.96600  0.63100  1.0000
  H   H9        1.0  0.67800  0.85800  0.14100  1.0000
  H   H10       1.0  0.32200  0.14200  0.85900  1.0000
  H   H11       1.0  0.61900  0.71400  0.14000  1.0000
  H   H12       1.0  0.38100  0.28600  0.86000  1.0000
  H   H13       1.0  0.78100  0.69900  0.36500  1.0000
  H   H14       1.0  0.21900  0.30100  0.63500  1.0000
  H   H15       1.0  0.86500  0.83400  0.46300  1.0000
  H   H16       1.0  0.13500  0.16600  0.53700  1.0000
  H   H17       1.0  0.86400  0.10600  0.02380  1.0000
  H   H18       1.0  0.13600  0.89400  0.97600  1.0000
  H   H19       1.0  0.93300  0.99000  0.15600  1.0000
  H   H20       1.0  0.06670  0.01040  0.84400  1.0000
  H   H21       1.0  0.05890  0.38800  0.45800  1.0000
  H   H22       1.0  0.94100  0.61200  0.54200  1.0000
  H   H23       1.0  0.22700  0.36800  0.43700  1.0000
  H   H24       1.0  0.77300  0.63200  0.56300  1.0000
  H   H25       1.0  0.04980  0.24700  0.42900  1.0000
  H   H26       1.0  0.95000  0.75300  0.57100  1.0000
  H   H27       1.0  0.74100  0.15200  0.24500  1.0000
  H   H28       1.0  0.25900  0.84800  0.75500  1.0000
  H   H29       1.0  0.75500  0.22000  0.15400  1.0000
  H   H30       1.0  0.24500  0.78000  0.84600  1.0000
  H   H31       1.0  0.74500  0.29100  0.27100  1.0000
  H   H32       1.0  0.25500  0.70900  0.72900  1.0000
  H   H33       1.0  0.04130  0.14300  0.98400  1.0000
  H   H34       1.0  0.95900  0.85700  0.01580  1.0000
  H   H35       1.0  0.98500  0.25300  0.03810  1.0000
  H   H36       1.0  0.01450  0.74700  0.96200  1.0000
  H   H37       1.0  0.04460  0.45300  0.08470  1.0000
  H   H38       1.0  0.95500  0.54700  0.91500  1.0000
  H   H39       1.0  0.98700  0.56200  0.13900  1.0000
  H   H40       1.0  0.01310  0.43800  0.86100  1.0000
  H   H41       1.0  0.59700  0.65000  0.45400  1.0000
  H   H42       1.0  0.40300  0.35000  0.54600  1.0000
  H   H43       1.0  0.46700  0.49900  0.41100  1.0000
  H   H44       1.0  0.53300  0.50100  0.58900  1.0000
  H   H45       1.0  0.40700  0.60100  0.47700  1.0000
  H   H46       1.0  0.59300  0.39900  0.52300  1.0000
  H   H47       1.0  0.89700  0.49500  0.35800  1.0000
  H   H48       1.0  0.10300  0.50500  0.64200  1.0000
  H   H49       1.0  0.86600  0.41400  0.12100  1.0000
  H   H50       1.0  0.13400  0.58600  0.87900  1.0000
  H   H51       1.0  0.01550  0.64000  0.36400  1.0000
  H   H52       1.0  0.98500  0.36000  0.63600  1.0000
  H   H53       1.0  0.09190  0.57500  0.44000  1.0000
  H   H54       1.0  0.90800  0.42500  0.56000  1.0000
  H   H55       1.0  0.72800  0.53000  0.26300  1.0000
  H   H56       1.0  0.27200  0.47000  0.73700  1.0000
  H   H57       1.0  0.68100  0.46600  0.13400  1.0000
  H   H58       1.0  0.31900  0.53400  0.86600  1.0000
  H   H59       1.0  0.49500  0.22200  0.31100  1.0000
  H   H60       1.0  0.50500  0.77800  0.68900  1.0000
  H   H61       1.0  0.44200  0.13600  0.10200  1.0000
  H   H62       1.0  0.55800  0.86400  0.89800  1.0000
  H   H63       1.0  0.60700  0.37500  0.34500  1.0000
  H   H64       1.0  0.39300  0.62500  0.65500  1.0000
  H   H65       1.0  0.42000  0.31700  0.37000  1.0000
  H   H66       1.0  0.58000  0.68300  0.63000  1.0000
  H   H67       1.0  0.12200  0.00455  0.13800  1.0000
  H   H68       1.0  0.87800  0.99500  0.86200  1.0000
  H   H69       1.0  0.10600  0.05590  0.25900  1.0000
  H   H70       1.0  0.89400  0.94400  0.74100  1.0000
  H   H71       1.0  0.34200  0.18000  0.01670  1.0000
  H   H72       1.0  0.65800  0.82000  0.98300  1.0000
  H   H73       1.0  0.54900  0.26600  0.07850  1.0000
  H   H74       1.0  0.45100  0.73400  0.92100  1.0000
  H   H75       1.0  0.20800  0.40800  0.03310  1.0000
  H   H76       1.0  0.79200  0.59200  0.96700  1.0000
  H   H77       1.0  0.37000  0.39000  0.99700  1.0000
  H   H78       1.0  0.63000  0.61000  0.00329  1.0000
  H   H79       1.0  0.73200  0.61500  0.18600  1.0000
  H   H80       1.0  0.26800  0.38500  0.81400  1.0000
  H   H81       1.0  0.36900  0.52900  0.02580  1.0000
  H   H82       1.0  0.63100  0.47100  0.97400  1.0000
  H   H83       1.0  0.69300  0.84400  0.56400  1.0000
  H   H84       1.0  0.30700  0.15600  0.43600  1.0000
  H   H85       1.0  0.31800  0.73500  0.52800  1.0000
  H   H86       1.0  0.68200  0.26500  0.47200  1.0000
  H   H87       1.0  0.68600  0.96100  0.65200  1.0000
  H   H88       1.0  0.31400  0.03900  0.34800  1.0000
  H   H89       1.0  0.79100  0.98800  0.56200  1.0000
  H   H90       1.0  0.20900  0.01200  0.43800  1.0000
  H   H91       1.0  0.20600  0.80500  0.48700  1.0000
  H   H92       1.0  0.79400  0.19500  0.51300  1.0000
  H   H93       1.0  0.33400  0.86600  0.60900  1.0000
  H   H94       1.0  0.66600  0.13400  0.39100  1.0000
  H   H95       1.0  0.40400  0.71200  0.06710  1.0000
  H   H96       1.0  0.59600  0.28800  0.93300  1.0000
  H   H97       1.0  0.20800  0.62100  0.06800  1.0000
  H   H98       1.0  0.79200  0.37900  0.93200  1.0000
  H   H99       1.0  0.07530  0.73100  0.25100  1.0000
  H   H100      1.0  0.92500  0.26900  0.74900  1.0000
  H   H101      1.0  0.11300  0.87500  0.25800  1.0000
  H   H102      1.0  0.88700  0.12500  0.74200  1.0000
  H   H103      1.0  0.02600  0.76100  0.14200  1.0000
  H   H104      1.0  0.97400  0.23900  0.85800  1.0000
  H   H105      1.0  0.33600  0.96400  0.11400  1.0000
  H   H106      1.0  0.66400  0.03570  0.88600  1.0000
  H   H107      1.0  0.44900  0.04110  0.24000  1.0000
  H   H108      1.0  0.55100  0.95900  0.76000  1.0000
  H   H109      1.0  0.52700  0.97100  0.15500  1.0000
  H   H110      1.0  0.47300  0.02920  0.84500  1.0000
  H   H111      1.0  0.82400  0.80500  0.16000  1.0000
  H   H112      1.0  0.17600  0.19500  0.84000  1.0000
  H   H113      1.0  0.23800  0.73400  0.01620  1.0000
  H   H114      1.0  0.76200  0.26600  0.98400  1.0000
  Si  Si1       1.0  0.73500  0.85600  0.31200  1.0000
  Si  Si2       1.0  0.26500  0.14400  0.68800  1.0000
  Si  Si3       1.0  0.02150  0.30600  0.27700  1.0000
  Si  Si4       1.0  0.97800  0.69400  0.72300  1.0000
  Si  Si5       1.0  0.10000  0.49300  0.26700  1.0000
  Si  Si6       1.0  0.90000  0.50700  0.73300  1.0000
  Si  Si7       1.0  0.37900  0.59600  0.30100  1.0000
  Si  Si8       1.0  0.62100  0.40400  0.69900  1.0000
  Si  Si9       1.0  0.47300  0.79900  0.32700  1.0000
  Si  Si10      1.0  0.52700  0.20100  0.67300  1.0000
  Si  Si11      1.0  0.44600  0.48000  0.17800  1.0000
  Si  Si12      1.0  0.55400  0.52000  0.82200  1.0000
  Si  Si13      1.0  0.37600  0.29400  0.19100  1.0000
  Si  Si14      1.0  0.62400  0.70600  0.80900  1.0000
  Si  Si15      1.0  0.10500  0.19400  0.16900  1.0000
  Si  Si16      1.0  0.89500  0.80600  0.83100  1.0000
  Si  Si17      1.0  0.31800  0.82000  0.19600  1.0000
  Si  Si18      1.0  0.68200  0.18000  0.80400  1.0000
  Si  Si19      1.0  0.49400  0.90600  0.49000  1.0000
  Si  Si20      1.0  0.50600  0.09400  0.51000  1.0000
