data_image0
_chemical_formula_structural       C52H144Si16
_chemical_formula_sum              "C52 H144 Si16"
_cell_length_a       12.0746
_cell_length_b       12.0746
_cell_length_c       12.0746
_cell_angle_alpha    90
_cell_angle_beta     90
_cell_angle_gamma    90

_space_group_name_H-M_alt    "P 1"
_space_group_IT_number       1

loop_
  _space_group_symop_operation_xyz
  'x, y, z'

loop_
  _atom_site_type_symbol
  _atom_site_label
  _atom_site_symmetry_multiplicity
  _atom_site_fract_x
  _atom_site_fract_y
  _atom_site_fract_z
  _atom_site_occupancy
  C   C1        1.0  0.18500  0.65900  0.41200  1.0000
  C   C2        1.0  0.31500  0.34100  0.91200  1.0000
  C   C3        1.0  0.68500  0.84100  0.58800  1.0000
  C   C4        1.0  0.81500  0.15900  0.08750  1.0000
  C   C5        1.0  0.41200  0.18500  0.65900  1.0000
  C   C6        1.0  0.65900  0.41200  0.18500  1.0000
  C   C7        1.0  0.08750  0.81500  0.15900  1.0000
  C   C8        1.0  0.34100  0.91200  0.31500  1.0000
  C   C9        1.0  0.91200  0.31500  0.34100  1.0000
  C   C10       1.0  0.84100  0.58800  0.68500  1.0000
  C   C11       1.0  0.58800  0.68500  0.84100  1.0000
  C   C12       1.0  0.15900  0.08750  0.81500  1.0000
  C   C13       1.0  0.07510  0.25100  0.57000  1.0000
  C   C14       1.0  0.42500  0.74900  0.07040  1.0000
  C   C15       1.0  0.57500  0.24900  0.43000  1.0000
  C   C16       1.0  0.92500  0.75100  0.93000  1.0000
  C   C17       1.0  0.57000  0.07510  0.25100  1.0000
  C   C18       1.0  0.25100  0.57000  0.07510  1.0000
  C   C19       1.0  0.93000  0.92500  0.75100  1.0000
  C   C20       1.0  0.74900  0.07040  0.42500  1.0000
  C   C21       1.0  0.07040  0.42500  0.74900  1.0000
  C   C22       1.0  0.24900  0.43000  0.57500  1.0000
  C   C23       1.0  0.43000  0.57500  0.24900  1.0000
  C   C24       1.0  0.75100  0.93000  0.92500  1.0000
  C   C25       1.0  0.00462  0.49500  0.50500  1.0000
  C   C26       1.0  0.49500  0.50500  0.00462  1.0000
  C   C27       1.0  0.50500  0.00462  0.49500  1.0000
  C   C28       1.0  0.99500  0.99500  0.99500  1.0000
  C   C29       1.0  0.10700  0.69300  0.64600  1.0000
  C   C30       1.0  0.39300  0.30700  0.14600  1.0000
  C   C31       1.0  0.60700  0.80700  0.35400  1.0000
  C   C32       1.0  0.89300  0.19300  0.85400  1.0000
  C   C33       1.0  0.64600  0.10700  0.69300  1.0000
  C   C34       1.0  0.69300  0.64600  0.10700  1.0000
  C   C35       1.0  0.85400  0.89300  0.19300  1.0000
  C   C36       1.0  0.30700  0.14600  0.39300  1.0000
  C   C37       1.0  0.14600  0.39300  0.30700  1.0000
  C   C38       1.0  0.80700  0.35400  0.60700  1.0000
  C   C39       1.0  0.35400  0.60700  0.80700  1.0000
  C   C40       1.0  0.19300  0.85400  0.89300  1.0000
  C   C41       1.0  0.95800  0.75100  0.45500  1.0000
  C   C42       1.0  0.54200  0.24900  0.95500  1.0000
  C   C43       1.0  0.45800  0.74900  0.54500  1.0000
  C   C44       1.0  0.04150  0.25100  0.04480  1.0000
  C   C45       1.0  0.45500  0.95800  0.75100  1.0000
  C   C46       1.0  0.75100  0.45500  0.95800  1.0000
  C   C47       1.0  0.04480  0.04150  0.25100  1.0000
  C   C48       1.0  0.24900  0.95500  0.54200  1.0000
  C   C49       1.0  0.95500  0.54200  0.24900  1.0000
  C   C50       1.0  0.74900  0.54500  0.45800  1.0000
  C   C51       1.0  0.54500  0.45800  0.74900  1.0000
  C   C52       1.0  0.25100  0.04480  0.04150  1.0000
  H   H1        1.0  0.88700  0.76200  0.51100  1.0000
  H   H2        1.0  0.61300  0.23800  0.01060  1.0000
  H   H3        1.0  0.38700  0.73800  0.48900  1.0000
  H   H4        1.0  0.11300  0.26200  0.98900  1.0000
  H   H5        1.0  0.51100  0.88700  0.76200  1.0000
  H   H6        1.0  0.76200  0.51100  0.88700  1.0000
  H   H7        1.0  0.98900  0.11300  0.26200  1.0000
  H   H8        1.0  0.23800  0.01060  0.61300  1.0000
  H   H9        1.0  0.01060  0.61300  0.23800  1.0000
  H   H10       1.0  0.73800  0.48900  0.38700  1.0000
  H   H11       1.0  0.48900  0.38700  0.73800  1.0000
  H   H12       1.0  0.26200  0.98900  0.11300  1.0000
  H   H13       1.0  0.13100  0.20500  0.62600  1.0000
  H   H14       1.0  0.36900  0.79500  0.12600  1.0000
  H   H15       1.0  0.63100  0.29500  0.37400  1.0000
  H   H16       1.0  0.86900  0.70500  0.87400  1.0000
  H   H17       1.0  0.62600  0.13100  0.20500  1.0000
  H   H18       1.0  0.20500  0.62600  0.13100  1.0000
  H   H19       1.0  0.87400  0.86900  0.70500  1.0000
  H   H20       1.0  0.79500  0.12600  0.36900  1.0000
  H   H21       1.0  0.12600  0.36900  0.79500  1.0000
  H   H22       1.0  0.29500  0.37400  0.63100  1.0000
  H   H23       1.0  0.37400  0.63100  0.29500  1.0000
  H   H24       1.0  0.70500  0.87400  0.86900  1.0000
  H   H25       1.0  0.09580  0.22500  0.48600  1.0000
  H   H26       1.0  0.40400  0.77500  0.98600  1.0000
  H   H27       1.0  0.59600  0.27500  0.51400  1.0000
  H   H28       1.0  0.90400  0.72500  0.01440  1.0000
  H   H29       1.0  0.48600  0.09580  0.22500  1.0000
  H   H30       1.0  0.22500  0.48600  0.09580  1.0000
  H   H31       1.0  0.01440  0.90400  0.72500  1.0000
  H   H32       1.0  0.77500  0.98600  0.40400  1.0000
  H   H33       1.0  0.98600  0.40400  0.77500  1.0000
  H   H34       1.0  0.27500  0.51400  0.59600  1.0000
  H   H35       1.0  0.51400  0.59600  0.27500  1.0000
  H   H36       1.0  0.72500  0.01440  0.90400  1.0000
  H   H37       1.0  0.18000  0.64800  0.67800  1.0000
  H   H38       1.0  0.32000  0.35200  0.17800  1.0000
  H   H39       1.0  0.68000  0.85200  0.32200  1.0000
  H   H40       1.0  0.82000  0.14800  0.82200  1.0000
  H   H41       1.0  0.67800  0.18000  0.64800  1.0000
  H   H42       1.0  0.64800  0.67800  0.18000  1.0000
  H   H43       1.0  0.82200  0.82000  0.14800  1.0000
  H   H44       1.0  0.35200  0.17800  0.32000  1.0000
  H   H45       1.0  0.17800  0.32000  0.35200  1.0000
  H   H46       1.0  0.85200  0.32200  0.68000  1.0000
  H   H47       1.0  0.32200  0.68000  0.85200  1.0000
  H   H48       1.0  0.14800  0.82200  0.82000  1.0000
  H   H49       1.0  0.99000  0.22300  0.58800  1.0000
  H   H50       1.0  0.51000  0.77700  0.08810  1.0000
  H   H51       1.0  0.49000  0.27700  0.41200  1.0000
  H   H52       1.0  0.00987  0.72300  0.91200  1.0000
  H   H53       1.0  0.58800  0.99000  0.22300  1.0000
  H   H54       1.0  0.22300  0.58800  0.99000  1.0000
  H   H55       1.0  0.91200  0.00987  0.72300  1.0000
  H   H56       1.0  0.77700  0.08810  0.51000  1.0000
  H   H57       1.0  0.08810  0.51000  0.77700  1.0000
  H   H58       1.0  0.27700  0.41200  0.49000  1.0000
  H   H59       1.0  0.41200  0.49000  0.27700  1.0000
  H   H60       1.0  0.72300  0.91200  0.00987  1.0000
  H   H61       1.0  0.21100  0.74600  0.41400  1.0000
  H   H62       1.0  0.28900  0.25400  0.91400  1.0000
  H   H63       1.0  0.71100  0.75400  0.58600  1.0000
  H   H64       1.0  0.78900  0.24600  0.08600  1.0000
  H   H65       1.0  0.41400  0.21100  0.74600  1.0000
  H   H66       1.0  0.74600  0.41400  0.21100  1.0000
  H   H67       1.0  0.08600  0.78900  0.24600  1.0000
  H   H68       1.0  0.25400  0.91400  0.28900  1.0000
  H   H69       1.0  0.91400  0.28900  0.25400  1.0000
  H   H70       1.0  0.75400  0.58600  0.71100  1.0000
  H   H71       1.0  0.58600  0.71100  0.75400  1.0000
  H   H72       1.0  0.24600  0.08600  0.78900  1.0000
  H   H73       1.0  0.92700  0.73200  0.37200  1.0000
  H   H74       1.0  0.57300  0.26800  0.87200  1.0000
  H   H75       1.0  0.42700  0.76800  0.62800  1.0000
  H   H76       1.0  0.07340  0.23200  0.12800  1.0000
  H   H77       1.0  0.37200  0.92700  0.73200  1.0000
  H   H78       1.0  0.73200  0.37200  0.92700  1.0000
  H   H79       1.0  0.12800  0.07340  0.23200  1.0000
  H   H80       1.0  0.26800  0.87200  0.57300  1.0000
  H   H81       1.0  0.87200  0.57300  0.26800  1.0000
  H   H82       1.0  0.76800  0.62800  0.42700  1.0000
  H   H83       1.0  0.62800  0.42700  0.76800  1.0000
  H   H84       1.0  0.23200  0.12800  0.07340  1.0000
  H   H85       1.0  0.16800  0.63800  0.32600  1.0000
  H   H86       1.0  0.33200  0.36200  0.82600  1.0000
  H   H87       1.0  0.66800  0.86200  0.67400  1.0000
  H   H88       1.0  0.83200  0.13800  0.17400  1.0000
  H   H89       1.0  0.32600  0.16800  0.63800  1.0000
  H   H90       1.0  0.63800  0.32600  0.16800  1.0000
  H   H91       1.0  0.17400  0.83200  0.13800  1.0000
  H   H92       1.0  0.36200  0.82600  0.33200  1.0000
  H   H93       1.0  0.82600  0.33200  0.36200  1.0000
  H   H94       1.0  0.86200  0.67400  0.66800  1.0000
  H   H95       1.0  0.67400  0.66800  0.86200  1.0000
  H   H96       1.0  0.13800  0.17400  0.83200  1.0000
  H   H97       1.0  0.25500  0.60900  0.44000  1.0000
  H   H98       1.0  0.24500  0.39100  0.94000  1.0000
  H   H99       1.0  0.75500  0.89100  0.56000  1.0000
  H   H100      1.0  0.74500  0.10900  0.05950  1.0000
  H   H101      1.0  0.44000  0.25500  0.60900  1.0000
  H   H102      1.0  0.60900  0.44000  0.25500  1.0000
  H   H103      1.0  0.05950  0.74500  0.10900  1.0000
  H   H104      1.0  0.39100  0.94000  0.24500  1.0000
  H   H105      1.0  0.94000  0.24500  0.39100  1.0000
  H   H106      1.0  0.89100  0.56000  0.75500  1.0000
  H   H107      1.0  0.56000  0.75500  0.89100  1.0000
  H   H108      1.0  0.10900  0.05950  0.74500  1.0000
  H   H109      1.0  0.04180  0.68900  0.70900  1.0000
  H   H110      1.0  0.45800  0.31100  0.20900  1.0000
  H   H111      1.0  0.54200  0.81100  0.29100  1.0000
  H   H112      1.0  0.95800  0.18900  0.79100  1.0000
  H   H113      1.0  0.70900  0.04180  0.68900  1.0000
  H   H114      1.0  0.68900  0.70900  0.04180  1.0000
  H   H115      1.0  0.79100  0.95800  0.18900  1.0000
  H   H116      1.0  0.31100  0.20900  0.45800  1.0000
  H   H117      1.0  0.20900  0.45800  0.31100  1.0000
  H   H118      1.0  0.81100  0.29100  0.54200  1.0000
  H   H119      1.0  0.29100  0.54200  0.81100  1.0000
  H   H120      1.0  0.18900  0.79100  0.95800  1.0000
  H   H121      1.0  0.00215  0.83100  0.45100  1.0000
  H   H122      1.0  0.49800  0.16900  0.95100  1.0000
  H   H123      1.0  0.50200  0.66900  0.54900  1.0000
  H   H124      1.0  0.99800  0.33100  0.04890  1.0000
  H   H125      1.0  0.45100  0.00215  0.83100  1.0000
  H   H126      1.0  0.83100  0.45100  0.00215  1.0000
  H   H127      1.0  0.04890  0.99800  0.33100  1.0000
  H   H128      1.0  0.16900  0.95100  0.49800  1.0000
  H   H129      1.0  0.95100  0.49800  0.16900  1.0000
  H   H130      1.0  0.66900  0.54900  0.50200  1.0000
  H   H131      1.0  0.54900  0.50200  0.66900  1.0000
  H   H132      1.0  0.33100  0.04890  0.99800  1.0000
  H   H133      1.0  0.13100  0.78000  0.63600  1.0000
  H   H134      1.0  0.36900  0.22000  0.13600  1.0000
  H   H135      1.0  0.63100  0.72000  0.36400  1.0000
  H   H136      1.0  0.86900  0.28000  0.86400  1.0000
  H   H137      1.0  0.63600  0.13100  0.78000  1.0000
  H   H138      1.0  0.78000  0.63600  0.13100  1.0000
  H   H139      1.0  0.86400  0.86900  0.28000  1.0000
  H   H140      1.0  0.22000  0.13600  0.36900  1.0000
  H   H141      1.0  0.13600  0.36900  0.22000  1.0000
  H   H142      1.0  0.72000  0.36400  0.63100  1.0000
  H   H143      1.0  0.36400  0.63100  0.72000  1.0000
  H   H144      1.0  0.28000  0.86400  0.86900  1.0000
  Si  Si1       1.0  0.06060  0.64300  0.50500  1.0000
  Si  Si2       1.0  0.43900  0.35700  0.00543  1.0000
  Si  Si3       1.0  0.56100  0.85700  0.49500  1.0000
  Si  Si4       1.0  0.93900  0.14300  0.99500  1.0000
  Si  Si5       1.0  0.50500  0.06060  0.64300  1.0000
  Si  Si6       1.0  0.64300  0.50500  0.06060  1.0000
  Si  Si7       1.0  0.99500  0.93900  0.14300  1.0000
  Si  Si8       1.0  0.35700  0.00543  0.43900  1.0000
  Si  Si9       1.0  0.00543  0.43900  0.35700  1.0000
  Si  Si10      1.0  0.85700  0.49500  0.56100  1.0000
  Si  Si11      1.0  0.49500  0.56100  0.85700  1.0000
  Si  Si12      1.0  0.14300  0.99500  0.93900  1.0000
  Si  Si13      1.0  0.09660  0.40300  0.59700  1.0000
  Si  Si14      1.0  0.40300  0.59700  0.09660  1.0000
  Si  Si15      1.0  0.59700  0.09660  0.40300  1.0000
  Si  Si16      1.0  0.90300  0.90300  0.90300  1.0000
