data_image0
_chemical_formula_structural       Al8C24H96N24
_chemical_formula_sum              "Al8 C24 H96 N24"
_cell_length_a       8.36422
_cell_length_b       8.36422
_cell_length_c       15.5427
_cell_angle_alpha    84.4959
_cell_angle_beta     95.5041
_cell_angle_gamma    100.679

_space_group_name_H-M_alt    "P 1"
_space_group_IT_number       1

loop_
  _space_group_symop_operation_xyz
  'x, y, z'

loop_
  _atom_site_type_symbol
  _atom_site_label
  _atom_site_symmetry_multiplicity
  _atom_site_fract_x
  _atom_site_fract_y
  _atom_site_fract_z
  _atom_site_occupancy
  Al  Al1       1.0  0.43500  0.43500  0.25000  1.0000
  Al  Al2       1.0  0.56500  0.56500  0.75000  1.0000
  Al  Al3       1.0  0.91900  0.80600  0.11400  1.0000
  Al  Al4       1.0  0.80600  0.91900  0.38600  1.0000
  Al  Al5       1.0  0.08110  0.19400  0.88600  1.0000
  Al  Al6       1.0  0.19400  0.08110  0.61400  1.0000
  Al  Al7       1.0  0.70300  0.70300  0.25000  1.0000
  Al  Al8       1.0  0.29700  0.29700  0.75000  1.0000
  C   C1        1.0  0.87300  0.81300  0.98800  1.0000
  C   C2        1.0  0.81300  0.87300  0.51200  1.0000
  C   C3        1.0  0.12700  0.18700  0.01180  1.0000
  C   C4        1.0  0.18700  0.12700  0.48800  1.0000
  C   C5        1.0  0.14300  0.85700  0.17000  1.0000
  C   C6        1.0  0.85700  0.14300  0.33000  1.0000
  C   C7        1.0  0.85700  0.14300  0.83000  1.0000
  C   C8        1.0  0.14300  0.85700  0.67000  1.0000
  C   C9        1.0  0.44700  0.25500  0.18000  1.0000
  C   C10       1.0  0.25500  0.44700  0.32000  1.0000
  C   C11       1.0  0.55300  0.74500  0.82000  1.0000
  C   C12       1.0  0.74500  0.55300  0.68000  1.0000
  C   C13       1.0  0.00679  0.43400  0.14500  1.0000
  C   C14       1.0  0.43400  0.00679  0.35500  1.0000
  C   C15       1.0  0.99300  0.56600  0.85500  1.0000
  C   C16       1.0  0.56600  0.99300  0.64500  1.0000
  C   C17       1.0  0.57000  0.34800  0.45700  1.0000
  C   C18       1.0  0.34800  0.57000  0.04320  1.0000
  C   C19       1.0  0.43000  0.65200  0.54300  1.0000
  C   C20       1.0  0.65200  0.43000  0.95700  1.0000
  C   C21       1.0  0.10400  0.69200  0.44000  1.0000
  C   C22       1.0  0.69200  0.10400  0.06040  1.0000
  C   C23       1.0  0.89600  0.30800  0.56000  1.0000
  C   C24       1.0  0.30800  0.89600  0.94000  1.0000
  H   H1        1.0  0.08270  0.78400  0.48100  1.0000
  H   H2        1.0  0.78400  0.08270  0.01940  1.0000
  H   H3        1.0  0.91700  0.21600  0.51900  1.0000
  H   H4        1.0  0.21600  0.91700  0.98100  1.0000
  H   H5        1.0  0.98000  0.55500  0.34400  1.0000
  H   H6        1.0  0.55500  0.98000  0.15600  1.0000
  H   H7        1.0  0.02050  0.44500  0.65600  1.0000
  H   H8        1.0  0.44500  0.02050  0.84400  1.0000
  H   H9        1.0  0.00841  0.83100  0.29500  1.0000
  H   H10       1.0  0.83100  0.00841  0.20500  1.0000
  H   H11       1.0  0.99200  0.16900  0.70500  1.0000
  H   H12       1.0  0.16900  0.99200  0.79500  1.0000
  H   H13       1.0  0.13200  0.58500  0.48100  1.0000
  H   H14       1.0  0.58500  0.13200  0.01850  1.0000
  H   H15       1.0  0.86800  0.41500  0.51900  1.0000
  H   H16       1.0  0.41500  0.86800  0.98100  1.0000
  H   H17       1.0  0.21100  0.74400  0.40300  1.0000
  H   H18       1.0  0.74400  0.21100  0.09710  1.0000
  H   H19       1.0  0.78900  0.25600  0.59700  1.0000
  H   H20       1.0  0.25600  0.78900  0.90300  1.0000
  H   H21       1.0  0.04760  0.31900  0.16900  1.0000
  H   H22       1.0  0.31900  0.04760  0.33100  1.0000
  H   H23       1.0  0.95200  0.68100  0.83100  1.0000
  H   H24       1.0  0.68100  0.95200  0.66900  1.0000
  H   H25       1.0  0.11500  0.52900  0.14000  1.0000
  H   H26       1.0  0.52900  0.11500  0.36000  1.0000
  H   H27       1.0  0.88500  0.47100  0.86000  1.0000
  H   H28       1.0  0.47100  0.88500  0.64000  1.0000
  H   H29       1.0  0.71900  0.40800  0.31700  1.0000
  H   H30       1.0  0.40800  0.71900  0.18300  1.0000
  H   H31       1.0  0.28100  0.59200  0.68300  1.0000
  H   H32       1.0  0.59200  0.28100  0.81700  1.0000
  H   H33       1.0  0.74700  0.54900  0.43400  1.0000
  H   H34       1.0  0.54900  0.74700  0.06620  1.0000
  H   H35       1.0  0.25300  0.45100  0.56600  1.0000
  H   H36       1.0  0.45100  0.25300  0.93400  1.0000
  H   H37       1.0  0.44500  0.30200  0.43100  1.0000
  H   H38       1.0  0.30200  0.44500  0.06860  1.0000
  H   H39       1.0  0.55500  0.69800  0.56900  1.0000
  H   H40       1.0  0.69800  0.55500  0.93100  1.0000
  H   H41       1.0  0.56600  0.36800  0.52500  1.0000
  H   H42       1.0  0.36800  0.56600  0.97500  1.0000
  H   H43       1.0  0.43400  0.63200  0.47500  1.0000
  H   H44       1.0  0.63200  0.43400  0.02530  1.0000
  H   H45       1.0  0.64500  0.25500  0.45200  1.0000
  H   H46       1.0  0.25500  0.64500  0.04820  1.0000
  H   H47       1.0  0.35500  0.74500  0.54800  1.0000
  H   H48       1.0  0.74500  0.35500  0.95200  1.0000
  H   H49       1.0  0.72100  0.55200  0.12100  1.0000
  H   H50       1.0  0.55200  0.72100  0.37900  1.0000
  H   H51       1.0  0.27900  0.44800  0.87900  1.0000
  H   H52       1.0  0.44800  0.27900  0.62100  1.0000
  H   H53       1.0  0.82000  0.37100  0.22100  1.0000
  H   H54       1.0  0.37100  0.82000  0.27900  1.0000
  H   H55       1.0  0.18000  0.62900  0.77900  1.0000
  H   H56       1.0  0.62900  0.18000  0.72100  1.0000
  H   H57       1.0  0.94600  0.41900  0.07870  1.0000
  H   H58       1.0  0.41900  0.94600  0.42100  1.0000
  H   H59       1.0  0.05400  0.58100  0.92100  1.0000
  H   H60       1.0  0.58100  0.05400  0.57900  1.0000
  H   H61       1.0  0.89500  0.69900  0.96600  1.0000
  H   H62       1.0  0.69900  0.89500  0.53400  1.0000
  H   H63       1.0  0.10500  0.30100  0.03380  1.0000
  H   H64       1.0  0.30100  0.10500  0.46600  1.0000
  H   H65       1.0  0.94900  0.91200  0.95100  1.0000
  H   H66       1.0  0.91200  0.94900  0.54900  1.0000
  H   H67       1.0  0.05140  0.08800  0.04870  1.0000
  H   H68       1.0  0.08800  0.05140  0.45100  1.0000
  H   H69       1.0  0.33100  0.17100  0.17000  1.0000
  H   H70       1.0  0.17100  0.33100  0.33000  1.0000
  H   H71       1.0  0.66900  0.82900  0.83000  1.0000
  H   H72       1.0  0.82900  0.66900  0.67000  1.0000
  H   H73       1.0  0.53400  0.17900  0.21100  1.0000
  H   H74       1.0  0.17900  0.53400  0.28900  1.0000
  H   H75       1.0  0.46600  0.82100  0.78900  1.0000
  H   H76       1.0  0.82100  0.46600  0.71100  1.0000
  H   H77       1.0  0.48700  0.30100  0.11600  1.0000
  H   H78       1.0  0.30100  0.48700  0.38400  1.0000
  H   H79       1.0  0.51300  0.69900  0.88400  1.0000
  H   H80       1.0  0.69900  0.51300  0.61600  1.0000
  H   H81       1.0  0.16600  0.75100  0.21400  1.0000
  H   H82       1.0  0.75100  0.16600  0.28600  1.0000
  H   H83       1.0  0.83400  0.24900  0.78600  1.0000
  H   H84       1.0  0.24900  0.83400  0.71400  1.0000
  H   H85       1.0  0.74500  0.82100  0.96800  1.0000
  H   H86       1.0  0.82100  0.74500  0.53200  1.0000
  H   H87       1.0  0.25500  0.17900  0.03160  1.0000
  H   H88       1.0  0.17900  0.25500  0.46800  1.0000
  H   H89       1.0  0.16300  0.96400  0.20800  1.0000
  H   H90       1.0  0.96400  0.16300  0.29200  1.0000
  H   H91       1.0  0.83700  0.03570  0.79200  1.0000
  H   H92       1.0  0.03570  0.83700  0.70800  1.0000
  H   H93       1.0  0.23800  0.88200  0.12400  1.0000
  H   H94       1.0  0.88200  0.23800  0.37600  1.0000
  H   H95       1.0  0.76200  0.11800  0.87600  1.0000
  H   H96       1.0  0.11800  0.76200  0.62400  1.0000
  N   N1        1.0  0.63900  0.48700  0.32000  1.0000
  N   N2        1.0  0.48700  0.63900  0.18000  1.0000
  N   N3        1.0  0.36100  0.51300  0.68000  1.0000
  N   N4        1.0  0.51300  0.36100  0.82000  1.0000
  N   N5        1.0  0.62800  0.50400  0.41100  1.0000
  N   N6        1.0  0.50400  0.62800  0.08890  1.0000
  N   N7        1.0  0.37200  0.49600  0.58900  1.0000
  N   N8        1.0  0.49600  0.37200  0.91100  1.0000
  N   N9        1.0  0.81200  0.59900  0.16700  1.0000
  N   N10       1.0  0.59900  0.81200  0.33300  1.0000
  N   N11       1.0  0.18800  0.40100  0.83300  1.0000
  N   N12       1.0  0.40100  0.18800  0.66700  1.0000
  N   N13       1.0  0.90200  0.47500  0.20500  1.0000
  N   N14       1.0  0.47500  0.90200  0.29500  1.0000
  N   N15       1.0  0.09800  0.52500  0.79500  1.0000
  N   N16       1.0  0.52500  0.09800  0.70500  1.0000
  N   N17       1.0  0.91000  0.77400  0.32900  1.0000
  N   N18       1.0  0.77400  0.91000  0.17100  1.0000
  N   N19       1.0  0.08960  0.22600  0.67100  1.0000
  N   N20       1.0  0.22600  0.08960  0.82900  1.0000
  N   N21       1.0  0.95800  0.63900  0.38400  1.0000
  N   N22       1.0  0.63900  0.95800  0.11600  1.0000
  N   N23       1.0  0.04160  0.36100  0.61600  1.0000
  N   N24       1.0  0.36100  0.04160  0.88400  1.0000
