data_image0
_chemical_formula_structural       C16H56K4N4Si8
_chemical_formula_sum              "C16 H56 K4 N4 Si8"
_cell_length_a       5.6337
_cell_length_b       14.4928
_cell_length_c       10.8167
_cell_angle_alpha    90
_cell_angle_beta     90
_cell_angle_gamma    90

_space_group_name_H-M_alt    "P 1"
_space_group_IT_number       1

loop_
  _space_group_symop_operation_xyz
  'x, y, z'

loop_
  _atom_site_type_symbol
  _atom_site_label
  _atom_site_symmetry_multiplicity
  _atom_site_fract_x
  _atom_site_fract_y
  _atom_site_fract_z
  _atom_site_occupancy
  C   C1        1.0  0.31100  0.44100  0.12800  1.0000
  C   C2        1.0  0.18900  0.55900  0.62800  1.0000
  C   C3        1.0  0.81100  0.05890  0.37200  1.0000
  C   C4        1.0  0.68900  0.94100  0.87200  1.0000
  C   C5        1.0  0.68900  0.55900  0.87200  1.0000
  C   C6        1.0  0.81100  0.44100  0.37200  1.0000
  C   C7        1.0  0.18900  0.94100  0.62800  1.0000
  C   C8        1.0  0.31100  0.05890  0.12800  1.0000
  C   C9        1.0  0.20200  0.36900  0.87200  1.0000
  C   C10       1.0  0.29800  0.63100  0.37200  1.0000
  C   C11       1.0  0.70200  0.13100  0.62800  1.0000
  C   C12       1.0  0.79800  0.86900  0.12800  1.0000
  C   C13       1.0  0.79800  0.63100  0.12800  1.0000
  C   C14       1.0  0.70200  0.36900  0.62800  1.0000
  C   C15       1.0  0.29800  0.86900  0.37200  1.0000
  C   C16       1.0  0.20200  0.13100  0.87200  1.0000
  H   H1        1.0  0.38500  0.34400  0.85700  1.0000
  H   H2        1.0  0.11500  0.65600  0.35700  1.0000
  H   H3        1.0  0.88500  0.15600  0.64300  1.0000
  H   H4        1.0  0.61500  0.84400  0.14300  1.0000
  H   H5        1.0  0.61500  0.65600  0.14300  1.0000
  H   H6        1.0  0.88500  0.34400  0.64300  1.0000
  H   H7        1.0  0.11500  0.84400  0.35700  1.0000
  H   H8        1.0  0.38500  0.15600  0.85700  1.0000
  H   H9        1.0  0.19700  0.44100  0.84200  1.0000
  H   H10       1.0  0.30300  0.55900  0.34200  1.0000
  H   H11       1.0  0.69700  0.05880  0.65800  1.0000
  H   H12       1.0  0.80300  0.94100  0.15800  1.0000
  H   H13       1.0  0.80300  0.55900  0.15800  1.0000
  H   H14       1.0  0.69700  0.44100  0.65800  1.0000
  H   H15       1.0  0.30300  0.94100  0.34200  1.0000
  H   H16       1.0  0.19700  0.05880  0.84200  1.0000
  H   H17       1.0  0.86900  0.39600  0.04980  1.0000
  H   H18       1.0  0.63100  0.60400  0.55000  1.0000
  H   H19       1.0  0.36900  0.10400  0.45000  1.0000
  H   H20       1.0  0.13100  0.89600  0.95000  1.0000
  H   H21       1.0  0.13100  0.60400  0.95000  1.0000
  H   H22       1.0  0.36900  0.39600  0.45000  1.0000
  H   H23       1.0  0.63100  0.89600  0.55000  1.0000
  H   H24       1.0  0.86900  0.10400  0.04980  1.0000
  H   H25       1.0  0.25200  0.51300  0.11300  1.0000
  H   H26       1.0  0.24800  0.48700  0.61300  1.0000
  H   H27       1.0  0.75200  0.98700  0.38700  1.0000
  H   H28       1.0  0.74800  0.01250  0.88700  1.0000
  H   H29       1.0  0.74800  0.48700  0.88700  1.0000
  H   H30       1.0  0.75200  0.51300  0.38700  1.0000
  H   H31       1.0  0.24800  0.01250  0.61300  1.0000
  H   H32       1.0  0.25200  0.98700  0.11300  1.0000
  H   H33       1.0  0.49800  0.43900  0.09830  1.0000
  H   H34       1.0  0.00219  0.56100  0.59800  1.0000
  H   H35       1.0  0.99800  0.06130  0.40200  1.0000
  H   H36       1.0  0.50200  0.93900  0.90200  1.0000
  H   H37       1.0  0.50200  0.56100  0.90200  1.0000
  H   H38       1.0  0.99800  0.43900  0.40200  1.0000
  H   H39       1.0  0.00219  0.93900  0.59800  1.0000
  H   H40       1.0  0.49800  0.06130  0.09830  1.0000
  H   H41       1.0  0.08340  0.32900  0.81100  1.0000
  H   H42       1.0  0.41700  0.67100  0.31100  1.0000
  H   H43       1.0  0.58300  0.17100  0.68900  1.0000
  H   H44       1.0  0.91700  0.82900  0.18900  1.0000
  H   H45       1.0  0.91700  0.67100  0.18900  1.0000
  H   H46       1.0  0.58300  0.32900  0.68900  1.0000
  H   H47       1.0  0.41700  0.82900  0.31100  1.0000
  H   H48       1.0  0.08340  0.17100  0.81100  1.0000
  H   H49       1.0  0.30700  0.42900  0.22900  1.0000
  H   H50       1.0  0.19300  0.57100  0.72900  1.0000
  H   H51       1.0  0.80700  0.07080  0.27100  1.0000
  H   H52       1.0  0.69300  0.92900  0.77100  1.0000
  H   H53       1.0  0.69300  0.57100  0.77100  1.0000
  H   H54       1.0  0.80700  0.42900  0.27100  1.0000
  H   H55       1.0  0.19300  0.92900  0.72900  1.0000
  H   H56       1.0  0.30700  0.07080  0.22900  1.0000
  K   K1        1.0  0.13100  0.25000  0.35900  1.0000
  K   K2        1.0  0.36900  0.75000  0.85900  1.0000
  K   K3        1.0  0.63100  0.25000  0.14100  1.0000
  K   K4        1.0  0.86900  0.75000  0.64100  1.0000
  N   N1        1.0  0.13400  0.25000  0.10100  1.0000
  N   N2        1.0  0.36600  0.75000  0.60100  1.0000
  N   N3        1.0  0.63400  0.25000  0.39900  1.0000
  N   N4        1.0  0.86600  0.75000  0.89900  1.0000
  Si  Si1       1.0  0.12000  0.35700  0.03930  1.0000
  Si  Si2       1.0  0.38000  0.64300  0.53900  1.0000
  Si  Si3       1.0  0.62000  0.14300  0.46100  1.0000
  Si  Si4       1.0  0.88000  0.85700  0.96100  1.0000
  Si  Si5       1.0  0.88000  0.64300  0.96100  1.0000
  Si  Si6       1.0  0.62000  0.35700  0.46100  1.0000
  Si  Si7       1.0  0.38000  0.85700  0.53900  1.0000
  Si  Si8       1.0  0.12000  0.14300  0.03930  1.0000
