data_image0
_chemical_formula_structural       C32H96Si8
_chemical_formula_sum              "C32 H96 Si8"
_cell_length_a       10.3971
_cell_length_b       10.3971
_cell_length_c       10.3971
_cell_angle_alpha    90
_cell_angle_beta     90
_cell_angle_gamma    90

_space_group_name_H-M_alt    "P 1"
_space_group_IT_number       1

loop_
  _space_group_symop_operation_xyz
  'x, y, z'

loop_
  _atom_site_type_symbol
  _atom_site_label
  _atom_site_symmetry_multiplicity
  _atom_site_fract_x
  _atom_site_fract_y
  _atom_site_fract_z
  _atom_site_occupancy
  C   C1        1.0  0.03070  0.03010  0.24000  1.0000
  C   C2        1.0  0.46900  0.97000  0.74000  1.0000
  C   C3        1.0  0.53100  0.47000  0.76000  1.0000
  C   C4        1.0  0.96900  0.53000  0.26000  1.0000
  C   C5        1.0  0.24000  0.03070  0.03010  1.0000
  C   C6        1.0  0.03010  0.24000  0.03070  1.0000
  C   C7        1.0  0.26000  0.96900  0.53000  1.0000
  C   C8        1.0  0.97000  0.74000  0.46900  1.0000
  C   C9        1.0  0.74000  0.46900  0.97000  1.0000
  C   C10       1.0  0.47000  0.76000  0.53100  1.0000
  C   C11       1.0  0.76000  0.53100  0.47000  1.0000
  C   C12       1.0  0.53000  0.26000  0.96900  1.0000
  C   C13       1.0  0.96900  0.97000  0.76000  1.0000
  C   C14       1.0  0.53100  0.03010  0.26000  1.0000
  C   C15       1.0  0.46900  0.53000  0.24000  1.0000
  C   C16       1.0  0.03070  0.47000  0.74000  1.0000
  C   C17       1.0  0.76000  0.96900  0.97000  1.0000
  C   C18       1.0  0.97000  0.76000  0.96900  1.0000
  C   C19       1.0  0.74000  0.03070  0.47000  1.0000
  C   C20       1.0  0.03010  0.26000  0.53100  1.0000
  C   C21       1.0  0.26000  0.53100  0.03010  1.0000
  C   C22       1.0  0.53000  0.24000  0.46900  1.0000
  C   C23       1.0  0.24000  0.46900  0.53000  1.0000
  C   C24       1.0  0.47000  0.74000  0.03070  1.0000
  C   C25       1.0  0.23800  0.23800  0.23800  1.0000
  C   C26       1.0  0.26200  0.76200  0.73800  1.0000
  C   C27       1.0  0.73800  0.26200  0.76200  1.0000
  C   C28       1.0  0.76200  0.73800  0.26200  1.0000
  C   C29       1.0  0.76200  0.76200  0.76200  1.0000
  C   C30       1.0  0.73800  0.23800  0.26200  1.0000
  C   C31       1.0  0.26200  0.73800  0.23800  1.0000
  C   C32       1.0  0.23800  0.26200  0.73800  1.0000
  H   H1        1.0  0.09160  0.96800  0.29900  1.0000
  H   H2        1.0  0.40800  0.03230  0.79900  1.0000
  H   H3        1.0  0.59200  0.53200  0.70100  1.0000
  H   H4        1.0  0.90800  0.46800  0.20100  1.0000
  H   H5        1.0  0.29900  0.09160  0.96800  1.0000
  H   H6        1.0  0.96800  0.29900  0.09160  1.0000
  H   H7        1.0  0.20100  0.90800  0.46800  1.0000
  H   H8        1.0  0.03230  0.79900  0.40800  1.0000
  H   H9        1.0  0.79900  0.40800  0.03230  1.0000
  H   H10       1.0  0.53200  0.70100  0.59200  1.0000
  H   H11       1.0  0.70100  0.59200  0.53200  1.0000
  H   H12       1.0  0.46800  0.20100  0.90800  1.0000
  H   H13       1.0  0.90800  0.03230  0.70100  1.0000
  H   H14       1.0  0.59200  0.96800  0.20100  1.0000
  H   H15       1.0  0.40800  0.46800  0.29900  1.0000
  H   H16       1.0  0.09160  0.53200  0.79900  1.0000
  H   H17       1.0  0.70100  0.90800  0.03230  1.0000
  H   H18       1.0  0.03230  0.70100  0.90800  1.0000
  H   H19       1.0  0.79900  0.09160  0.53200  1.0000
  H   H20       1.0  0.96800  0.20100  0.59200  1.0000
  H   H21       1.0  0.20100  0.59200  0.96800  1.0000
  H   H22       1.0  0.46800  0.29900  0.40800  1.0000
  H   H23       1.0  0.29900  0.40800  0.46800  1.0000
  H   H24       1.0  0.53200  0.79900  0.09160  1.0000
  H   H25       1.0  0.31700  0.28300  0.18200  1.0000
  H   H26       1.0  0.18300  0.71700  0.68200  1.0000
  H   H27       1.0  0.81700  0.21700  0.81800  1.0000
  H   H28       1.0  0.68300  0.78300  0.31800  1.0000
  H   H29       1.0  0.18200  0.31700  0.28300  1.0000
  H   H30       1.0  0.28300  0.18200  0.31700  1.0000
  H   H31       1.0  0.31800  0.68300  0.78300  1.0000
  H   H32       1.0  0.71700  0.68200  0.18300  1.0000
  H   H33       1.0  0.68200  0.18300  0.71700  1.0000
  H   H34       1.0  0.21700  0.81800  0.81700  1.0000
  H   H35       1.0  0.81800  0.81700  0.21700  1.0000
  H   H36       1.0  0.78300  0.31800  0.68300  1.0000
  H   H37       1.0  0.68300  0.71700  0.81800  1.0000
  H   H38       1.0  0.81700  0.28300  0.31800  1.0000
  H   H39       1.0  0.18300  0.78300  0.18200  1.0000
  H   H40       1.0  0.31700  0.21700  0.68200  1.0000
  H   H41       1.0  0.81800  0.68300  0.71700  1.0000
  H   H42       1.0  0.71700  0.81800  0.68300  1.0000
  H   H43       1.0  0.68200  0.31700  0.21700  1.0000
  H   H44       1.0  0.28300  0.31800  0.81700  1.0000
  H   H45       1.0  0.31800  0.81700  0.28300  1.0000
  H   H46       1.0  0.78300  0.18200  0.18300  1.0000
  H   H47       1.0  0.18200  0.18300  0.78300  1.0000
  H   H48       1.0  0.21700  0.68200  0.31700  1.0000
  H   H49       1.0  0.96600  0.96800  0.18300  1.0000
  H   H50       1.0  0.53400  0.03200  0.68300  1.0000
  H   H51       1.0  0.46600  0.53200  0.81700  1.0000
  H   H52       1.0  0.03360  0.46800  0.31700  1.0000
  H   H53       1.0  0.18300  0.96600  0.96800  1.0000
  H   H54       1.0  0.96800  0.18300  0.96600  1.0000
  H   H55       1.0  0.31700  0.03360  0.46800  1.0000
  H   H56       1.0  0.03200  0.68300  0.53400  1.0000
  H   H57       1.0  0.68300  0.53400  0.03200  1.0000
  H   H58       1.0  0.53200  0.81700  0.46600  1.0000
  H   H59       1.0  0.81700  0.46600  0.53200  1.0000
  H   H60       1.0  0.46800  0.31700  0.03360  1.0000
  H   H61       1.0  0.03360  0.03200  0.81700  1.0000
  H   H62       1.0  0.46600  0.96800  0.31700  1.0000
  H   H63       1.0  0.53400  0.46800  0.18300  1.0000
  H   H64       1.0  0.96600  0.53200  0.68300  1.0000
  H   H65       1.0  0.81700  0.03360  0.03200  1.0000
  H   H66       1.0  0.03200  0.81700  0.03360  1.0000
  H   H67       1.0  0.68300  0.96600  0.53200  1.0000
  H   H68       1.0  0.96800  0.31700  0.46600  1.0000
  H   H69       1.0  0.31700  0.46600  0.96800  1.0000
  H   H70       1.0  0.46800  0.18300  0.53400  1.0000
  H   H71       1.0  0.18300  0.53400  0.46800  1.0000
  H   H72       1.0  0.53200  0.68300  0.96600  1.0000
  H   H73       1.0  0.97100  0.08800  0.30500  1.0000
  H   H74       1.0  0.52900  0.91200  0.80500  1.0000
  H   H75       1.0  0.47100  0.41200  0.69500  1.0000
  H   H76       1.0  0.02890  0.58800  0.19500  1.0000
  H   H77       1.0  0.30500  0.97100  0.08800  1.0000
  H   H78       1.0  0.08800  0.30500  0.97100  1.0000
  H   H79       1.0  0.19500  0.02890  0.58800  1.0000
  H   H80       1.0  0.91200  0.80500  0.52900  1.0000
  H   H81       1.0  0.80500  0.52900  0.91200  1.0000
  H   H82       1.0  0.41200  0.69500  0.47100  1.0000
  H   H83       1.0  0.69500  0.47100  0.41200  1.0000
  H   H84       1.0  0.58800  0.19500  0.02890  1.0000
  H   H85       1.0  0.02890  0.91200  0.69500  1.0000
  H   H86       1.0  0.47100  0.08800  0.19500  1.0000
  H   H87       1.0  0.52900  0.58800  0.30500  1.0000
  H   H88       1.0  0.97100  0.41200  0.80500  1.0000
  H   H89       1.0  0.69500  0.02890  0.91200  1.0000
  H   H90       1.0  0.91200  0.69500  0.02890  1.0000
  H   H91       1.0  0.80500  0.97100  0.41200  1.0000
  H   H92       1.0  0.08800  0.19500  0.47100  1.0000
  H   H93       1.0  0.19500  0.47100  0.08800  1.0000
  H   H94       1.0  0.58800  0.30500  0.52900  1.0000
  H   H95       1.0  0.30500  0.52900  0.58800  1.0000
  H   H96       1.0  0.41200  0.80500  0.97100  1.0000
  Si  Si1       1.0  0.13400  0.13400  0.13400  1.0000
  Si  Si2       1.0  0.36600  0.86600  0.63400  1.0000
  Si  Si3       1.0  0.63400  0.36600  0.86600  1.0000
  Si  Si4       1.0  0.86600  0.63400  0.36600  1.0000
  Si  Si5       1.0  0.86600  0.86600  0.86600  1.0000
  Si  Si6       1.0  0.63400  0.13400  0.36600  1.0000
  Si  Si7       1.0  0.36600  0.63400  0.13400  1.0000
  Si  Si8       1.0  0.13400  0.36600  0.63400  1.0000
