data_image0
_chemical_formula_structural       F6IrK2
_chemical_formula_sum              "F6 Ir1 K2"
_cell_length_a       5.59128
_cell_length_b       5.59125
_cell_length_c       4.39936
_cell_angle_alpha    90.0001
_cell_angle_beta     90.0005
_cell_angle_gamma    120

_space_group_name_H-M_alt    "P 1"
_space_group_IT_number       1

loop_
  _space_group_symop_operation_xyz
  'x, y, z'

loop_
  _atom_site_type_symbol
  _atom_site_label
  _atom_site_symmetry_multiplicity
  _atom_site_fract_x
  _atom_site_fract_y
  _atom_site_fract_z
  _atom_site_occupancy
  F   F1        1.0  0.66000  0.83000  0.23900  1.0000
  F   F2        1.0  0.17000  0.83000  0.23900  1.0000
  F   F3        1.0  0.17000  0.34000  0.23900  1.0000
  F   F4        1.0  0.83000  0.66000  0.76100  1.0000
  F   F5        1.0  0.34000  0.17000  0.76100  1.0000
  F   F6        1.0  0.83000  0.17000  0.76100  1.0000
  Ir  Ir1       1.0  0.00000  0.00000  0.00000  1.0000
  K   K1        1.0  0.66700  0.33300  0.27900  1.0000
  K   K2        1.0  0.33300  0.66700  0.72100  1.0000
