data_image0
_chemical_formula_structural       Ba2EuO6Sb
_chemical_formula_sum              "Ba2 Eu1 O6 Sb1"
_cell_length_a       6.06522
_cell_length_b       6.06522
_cell_length_c       6.06522
_cell_angle_alpha    120
_cell_angle_beta     90
_cell_angle_gamma    120

_space_group_name_H-M_alt    "P 1"
_space_group_IT_number       1

loop_
  _space_group_symop_operation_xyz
  'x, y, z'

loop_
  _atom_site_type_symbol
  _atom_site_label
  _atom_site_symmetry_multiplicity
  _atom_site_fract_x
  _atom_site_fract_y
  _atom_site_fract_z
  _atom_site_occupancy
  Ba  Ba1       1.0  0.75000  0.50000  0.25000  1.0000
  Ba  Ba2       1.0  0.25000  0.50000  0.75000  1.0000
  Eu  Eu1       1.0  0.50000  0.00000  0.50000  1.0000
  O   O1        1.0  0.23200  0.00000  0.23200  1.0000
  O   O2        1.0  0.76800  0.00000  0.23200  1.0000
  O   O3        1.0  0.23200  0.46300  0.23200  1.0000
  O   O4        1.0  0.76800  0.00000  0.76800  1.0000
  O   O5        1.0  0.23200  0.00000  0.76800  1.0000
  O   O6        1.0  0.76800  0.53700  0.76800  1.0000
  Sb  Sb1       1.0  0.00000  0.00000  0.00000  1.0000
