data_image0
_chemical_formula_structural       Ge2I2La2
_chemical_formula_sum              "Ge2 I2 La2"
_cell_length_a       4.43474
_cell_length_b       4.43473
_cell_length_c       11.7847
_cell_angle_alpha    90.0002
_cell_angle_beta     90.0012
_cell_angle_gamma    120.001

_space_group_name_H-M_alt    "P 1"
_space_group_IT_number       1

loop_
  _space_group_symop_operation_xyz
  'x, y, z'

loop_
  _atom_site_type_symbol
  _atom_site_label
  _atom_site_symmetry_multiplicity
  _atom_site_fract_x
  _atom_site_fract_y
  _atom_site_fract_z
  _atom_site_occupancy
  Ge  Ge1       1.0  0.66700  0.33300  0.01100  1.0000
  Ge  Ge2       1.0  0.33300  0.66700  0.98900  1.0000
  I   I1        1.0  0.33300  0.66700  0.35000  1.0000
  I   I2        1.0  0.66700  0.33300  0.65000  1.0000
  La  La1       1.0  0.00001  0.00001  0.17300  1.0000
  La  La2       1.0  0.00000  0.00000  0.82700  1.0000
