data_image0
_chemical_formula_structural       Ba2Cu2F2Se2
_chemical_formula_sum              "Ba2 Cu2 F2 Se2"
_cell_length_a       4.23001
_cell_length_b       4.23001
_cell_length_c       9.11844
_cell_angle_alpha    90
_cell_angle_beta     90
_cell_angle_gamma    90

_space_group_name_H-M_alt    "P 1"
_space_group_IT_number       1

loop_
  _space_group_symop_operation_xyz
  'x, y, z'

loop_
  _atom_site_type_symbol
  _atom_site_label
  _atom_site_symmetry_multiplicity
  _atom_site_fract_x
  _atom_site_fract_y
  _atom_site_fract_z
  _atom_site_occupancy
  Ba  Ba1       1.0  0.25000  0.25000  0.32700  1.0000
  Ba  Ba2       1.0  0.75000  0.75000  0.67300  1.0000
  Cu  Cu1       1.0  0.75000  0.25000  0.00000  1.0000
  Cu  Cu2       1.0  0.25000  0.75000  0.00000  1.0000
  F   F1        1.0  0.75000  0.25000  0.50000  1.0000
  F   F2        1.0  0.25000  0.75000  0.50000  1.0000
  Se  Se1       1.0  0.75000  0.75000  0.15300  1.0000
  Se  Se2       1.0  0.25000  0.25000  0.84700  1.0000
