data_image0
_chemical_formula_structural       Co2MgU
_chemical_formula_sum              "Co2 Mg1 U1"
_cell_length_a       4.4241
_cell_length_b       4.4241
_cell_length_c       4.4241
_cell_angle_alpha    60.2066
_cell_angle_beta     60.2066
_cell_angle_gamma    60.2066

_space_group_name_H-M_alt    "P 1"
_space_group_IT_number       1

loop_
  _space_group_symop_operation_xyz
  'x, y, z'

loop_
  _atom_site_type_symbol
  _atom_site_label
  _atom_site_symmetry_multiplicity
  _atom_site_fract_x
  _atom_site_fract_y
  _atom_site_fract_z
  _atom_site_occupancy
  Co  Co1       1.0  0.50200  0.50200  0.50200  1.0000
  Co  Co2       1.0  0.99800  0.99800  0.99800  1.0000
  Mg  Mg1       1.0  0.25000  0.25000  0.25000  1.0000
  U   U1        1.0  0.75000  0.75000  0.75000  1.0000
