data_image0
_chemical_formula_structural       Pb2Pd4Tm4
_chemical_formula_sum              "Pb2 Pd4 Tm4"
_cell_length_a       7.79282
_cell_length_b       7.79282
_cell_length_c       3.59855
_cell_angle_alpha    90
_cell_angle_beta     90
_cell_angle_gamma    90

_space_group_name_H-M_alt    "P 1"
_space_group_IT_number       1

loop_
  _space_group_symop_operation_xyz
  'x, y, z'

loop_
  _atom_site_type_symbol
  _atom_site_label
  _atom_site_symmetry_multiplicity
  _atom_site_fract_x
  _atom_site_fract_y
  _atom_site_fract_z
  _atom_site_occupancy
  Pb  Pb1       1.0  0.00000  0.00000  0.00000  1.0000
  Pb  Pb2       1.0  0.50000  0.50000  0.00000  1.0000
  Pd  Pd1       1.0  0.62600  0.12600  0.00000  1.0000
  Pd  Pd2       1.0  0.12600  0.37400  0.00000  1.0000
  Pd  Pd3       1.0  0.87400  0.62600  0.00000  1.0000
  Pd  Pd4       1.0  0.37400  0.87400  0.00000  1.0000
  Tm  Tm1       1.0  0.33000  0.17000  0.50000  1.0000
  Tm  Tm2       1.0  0.83000  0.33000  0.50000  1.0000
  Tm  Tm3       1.0  0.17000  0.67000  0.50000  1.0000
  Tm  Tm4       1.0  0.67000  0.83000  0.50000  1.0000
