data_image0
_chemical_formula_structural       Gd4Pb2Pd4
_chemical_formula_sum              "Gd4 Pb2 Pd4"
_cell_length_a       7.87891
_cell_length_b       7.87891
_cell_length_c       3.70898
_cell_angle_alpha    90
_cell_angle_beta     90
_cell_angle_gamma    90

_space_group_name_H-M_alt    "P 1"
_space_group_IT_number       1

loop_
  _space_group_symop_operation_xyz
  'x, y, z'

loop_
  _atom_site_type_symbol
  _atom_site_label
  _atom_site_symmetry_multiplicity
  _atom_site_fract_x
  _atom_site_fract_y
  _atom_site_fract_z
  _atom_site_occupancy
  Gd  Gd1       1.0  0.32600  0.17400  0.50000  1.0000
  Gd  Gd2       1.0  0.82600  0.32600  0.50000  1.0000
  Gd  Gd3       1.0  0.17400  0.67400  0.50000  1.0000
  Gd  Gd4       1.0  0.67400  0.82600  0.50000  1.0000
  Pb  Pb1       1.0  0.00000  0.00000  0.00000  1.0000
  Pb  Pb2       1.0  0.50000  0.50000  0.00000  1.0000
  Pd  Pd1       1.0  0.62500  0.12500  0.00000  1.0000
  Pd  Pd2       1.0  0.12500  0.37500  0.00000  1.0000
  Pd  Pd3       1.0  0.87500  0.62500  0.00000  1.0000
  Pd  Pd4       1.0  0.37500  0.87500  0.00000  1.0000
