data_image0
_chemical_formula_structural       Dy6Pd4
_chemical_formula_sum              "Dy6 Pd4"
_cell_length_a       7.77399
_cell_length_b       7.77399
_cell_length_c       3.92974
_cell_angle_alpha    90
_cell_angle_beta     90
_cell_angle_gamma    90

_space_group_name_H-M_alt    "P 1"
_space_group_IT_number       1

loop_
  _space_group_symop_operation_xyz
  'x, y, z'

loop_
  _atom_site_type_symbol
  _atom_site_label
  _atom_site_symmetry_multiplicity
  _atom_site_fract_x
  _atom_site_fract_y
  _atom_site_fract_z
  _atom_site_occupancy
  Dy  Dy1       1.0  0.00000  0.00000  0.00000  1.0000
  Dy  Dy2       1.0  0.50000  0.50000  0.00000  1.0000
  Dy  Dy3       1.0  0.33400  0.16600  0.50000  1.0000
  Dy  Dy4       1.0  0.83400  0.33400  0.50000  1.0000
  Dy  Dy5       1.0  0.16600  0.66600  0.50000  1.0000
  Dy  Dy6       1.0  0.66600  0.83400  0.50000  1.0000
  Pd  Pd1       1.0  0.63200  0.13200  0.00000  1.0000
  Pd  Pd2       1.0  0.13200  0.36800  0.00000  1.0000
  Pd  Pd3       1.0  0.86800  0.63200  0.00000  1.0000
  Pd  Pd4       1.0  0.36800  0.86800  0.00000  1.0000
