data_image0
_chemical_formula_structural       C4Li2O4
_chemical_formula_sum              "C4 Li2 O4"
_cell_length_a       3.24263
_cell_length_b       5.92468
_cell_length_c       5.92468
_cell_angle_alpha    106.972
_cell_angle_beta     96.031
_cell_angle_gamma    96.031

_space_group_name_H-M_alt    "P 1"
_space_group_IT_number       1

loop_
  _space_group_symop_operation_xyz
  'x, y, z'

loop_
  _atom_site_type_symbol
  _atom_site_label
  _atom_site_symmetry_multiplicity
  _atom_site_fract_x
  _atom_site_fract_y
  _atom_site_fract_z
  _atom_site_occupancy
  C   C1        1.0  0.00000  0.89100  0.10900  1.0000
  C   C2        1.0  0.16700  0.14000  0.14000  1.0000
  C   C3        1.0  0.83300  0.86000  0.86000  1.0000
  C   C4        1.0  0.00000  0.10900  0.89100  1.0000
  Li  Li1       1.0  0.50000  0.64700  0.35300  1.0000
  Li  Li2       1.0  0.50000  0.35300  0.64700  1.0000
  O   O1        1.0  0.00000  0.75800  0.24200  1.0000
  O   O2        1.0  0.36900  0.30900  0.30900  1.0000
  O   O3        1.0  0.63100  0.69100  0.69100  1.0000
  O   O4        1.0  0.00000  0.24200  0.75800  1.0000
