data_image0
_chemical_formula_structural       Ba2CuHgO5Tl
_chemical_formula_sum              "Ba2 Cu1 Hg1 O5 Tl1"
_cell_length_a       3.84825
_cell_length_b       3.84825
_cell_length_c       12.1182
_cell_angle_alpha    99.1361
_cell_angle_beta     99.1361
_cell_angle_gamma    90

_space_group_name_H-M_alt    "P 1"
_space_group_IT_number       1

loop_
  _space_group_symop_operation_xyz
  'x, y, z'

loop_
  _atom_site_type_symbol
  _atom_site_label
  _atom_site_symmetry_multiplicity
  _atom_site_fract_x
  _atom_site_fract_y
  _atom_site_fract_z
  _atom_site_occupancy
  Ba  Ba1       1.0  0.58600  0.58600  0.17100  1.0000
  Ba  Ba2       1.0  0.41700  0.41700  0.83400  1.0000
  Cu  Cu1       1.0  0.00420  0.00420  0.00840  1.0000
  Hg  Hg1       1.0  0.79600  0.79600  0.59100  1.0000
  O   O1        1.0  0.49800  0.99800  0.99600  1.0000
  O   O2        1.0  0.99800  0.49800  0.99600  1.0000
  O   O3        1.0  0.11000  0.11000  0.22100  1.0000
  O   O4        1.0  0.70900  0.70900  0.41900  1.0000
  O   O5        1.0  0.88000  0.88000  0.76000  1.0000
  Tl  Tl1       1.0  0.20300  0.20300  0.40500  1.0000
